*SPEF "ieee 1481-1999"
*DESIGN "digital_pll"
*DATE "11:11:11 Fri 11 11, 1111"
*VENDOR "OpenRCX"
*PROGRAM "Parallel Extraction"
*VERSION "1.0"
*DESIGN_FLOW "NAME_SCOPE LOCAL" "PIN_CAP NONE"
*DIVIDER /
*DELIMITER :
*BUS_DELIMITER []
*T_UNIT 1 NS
*C_UNIT 1 PF
*R_UNIT 1 OHM
*L_UNIT 1 HENRY

*NAME_MAP
*3 clockp[0]
*4 clockp[1]
*5 dco
*6 div[0]
*7 div[1]
*8 div[2]
*9 div[3]
*10 div[4]
*11 enable
*12 ext_trim[0]
*13 ext_trim[10]
*14 ext_trim[11]
*15 ext_trim[12]
*16 ext_trim[13]
*17 ext_trim[14]
*18 ext_trim[15]
*19 ext_trim[16]
*20 ext_trim[17]
*21 ext_trim[18]
*22 ext_trim[19]
*23 ext_trim[1]
*24 ext_trim[20]
*25 ext_trim[21]
*26 ext_trim[22]
*27 ext_trim[23]
*28 ext_trim[24]
*29 ext_trim[25]
*30 ext_trim[2]
*31 ext_trim[3]
*32 ext_trim[4]
*33 ext_trim[5]
*34 ext_trim[6]
*35 ext_trim[7]
*36 ext_trim[8]
*37 ext_trim[9]
*38 osc
*39 resetb
*40 _000_
*41 _001_
*42 _002_
*43 _003_
*44 _004_
*45 _005_
*46 _006_
*47 _007_
*48 _008_
*49 _009_
*50 _010_
*51 _011_
*52 _012_
*53 _013_
*54 _014_
*55 _015_
*56 _016_
*57 _017_
*58 _018_
*59 _019_
*60 _020_
*61 _021_
*62 _022_
*63 _023_
*64 _024_
*65 _025_
*66 _026_
*67 _027_
*68 _028_
*69 _029_
*70 _030_
*71 _031_
*72 _032_
*73 _033_
*74 _034_
*75 _035_
*76 _036_
*77 _037_
*78 _038_
*79 _039_
*80 _040_
*81 _041_
*82 _042_
*83 _043_
*84 _044_
*85 _045_
*86 _046_
*87 _047_
*88 _048_
*89 _049_
*90 _050_
*91 _051_
*92 _052_
*93 _053_
*94 _054_
*95 _055_
*96 _056_
*97 _057_
*98 _058_
*99 _059_
*100 _060_
*101 _061_
*102 _062_
*103 _063_
*104 _064_
*105 _065_
*106 _066_
*107 _067_
*108 _068_
*109 _069_
*110 _070_
*111 _071_
*112 _072_
*113 _073_
*114 _074_
*115 _075_
*116 _076_
*117 _077_
*118 _078_
*119 _079_
*120 _080_
*121 _081_
*122 _082_
*123 _083_
*124 _084_
*125 _085_
*126 _086_
*127 _087_
*128 _088_
*129 _089_
*130 _090_
*131 _091_
*132 _092_
*133 _093_
*134 _094_
*135 _095_
*136 _096_
*137 _097_
*138 _098_
*139 _099_
*140 _100_
*141 _101_
*142 _102_
*143 _103_
*144 _104_
*145 _105_
*146 _106_
*147 _107_
*148 _108_
*149 _109_
*150 _110_
*151 _111_
*152 _112_
*153 _113_
*154 _114_
*155 _115_
*156 _116_
*157 _117_
*158 _118_
*159 _119_
*160 _120_
*161 _121_
*162 _122_
*163 _123_
*164 _124_
*165 _125_
*166 _126_
*167 _127_
*168 _128_
*169 _129_
*170 _130_
*171 _131_
*172 _132_
*173 _133_
*174 _134_
*175 _135_
*176 _136_
*177 _137_
*178 _138_
*179 _139_
*180 _140_
*181 _141_
*182 _142_
*183 _143_
*184 _144_
*185 _145_
*186 _146_
*187 _147_
*188 _148_
*189 _149_
*190 _150_
*191 _151_
*192 _152_
*193 _153_
*194 _154_
*195 _155_
*196 _156_
*197 _157_
*198 _158_
*199 _159_
*200 _160_
*201 _161_
*202 _162_
*203 _163_
*204 _164_
*205 _165_
*206 _166_
*207 _167_
*208 _168_
*209 _169_
*210 _170_
*211 _171_
*212 _172_
*213 _173_
*214 _174_
*215 _175_
*216 _176_
*217 _177_
*218 _178_
*219 _179_
*220 _180_
*221 _181_
*222 _182_
*223 _183_
*224 _184_
*225 _185_
*226 _186_
*227 _187_
*228 _188_
*229 _189_
*230 _190_
*231 _191_
*232 _192_
*233 _193_
*234 _194_
*235 _195_
*236 _196_
*237 _197_
*238 _198_
*239 _199_
*240 _200_
*241 _201_
*242 _202_
*243 _203_
*244 _204_
*245 _205_
*246 _206_
*247 _207_
*248 _208_
*249 pll_control\.clock
*250 pll_control\.count0\[0\]
*251 pll_control\.count0\[1\]
*252 pll_control\.count0\[2\]
*253 pll_control\.count0\[3\]
*254 pll_control\.count0\[4\]
*255 pll_control\.count1\[0\]
*256 pll_control\.count1\[1\]
*257 pll_control\.count1\[2\]
*258 pll_control\.count1\[3\]
*259 pll_control\.count1\[4\]
*260 pll_control\.oscbuf\[0\]
*261 pll_control\.oscbuf\[1\]
*262 pll_control\.oscbuf\[2\]
*263 pll_control\.prep\[0\]
*264 pll_control\.prep\[1\]
*265 pll_control\.prep\[2\]
*266 pll_control\.tint\[0\]
*267 pll_control\.tint\[1\]
*268 pll_control\.tint\[2\]
*269 pll_control\.tint\[3\]
*270 pll_control\.tint\[4\]
*271 pll_control\.tval\[0\]
*272 pll_control\.tval\[1\]
*273 ringosc\.c\[0\]
*274 ringosc\.c\[1\]
*275 ringosc\.clockp\[1\]
*276 ringosc\.dstage\[0\]\.id\.d0
*277 ringosc\.dstage\[0\]\.id\.d1
*278 ringosc\.dstage\[0\]\.id\.d2
*279 ringosc\.dstage\[0\]\.id\.in
*280 ringosc\.dstage\[0\]\.id\.out
*281 ringosc\.dstage\[0\]\.id\.trim\[0\]
*282 ringosc\.dstage\[0\]\.id\.trim\[1\]
*283 ringosc\.dstage\[0\]\.id\.ts
*284 ringosc\.dstage\[10\]\.id\.d0
*285 ringosc\.dstage\[10\]\.id\.d1
*286 ringosc\.dstage\[10\]\.id\.d2
*287 ringosc\.dstage\[10\]\.id\.in
*288 ringosc\.dstage\[10\]\.id\.out
*289 ringosc\.dstage\[10\]\.id\.trim\[0\]
*290 ringosc\.dstage\[10\]\.id\.trim\[1\]
*291 ringosc\.dstage\[10\]\.id\.ts
*292 ringosc\.dstage\[11\]\.id\.d0
*293 ringosc\.dstage\[11\]\.id\.d1
*294 ringosc\.dstage\[11\]\.id\.d2
*295 ringosc\.dstage\[11\]\.id\.out
*296 ringosc\.dstage\[11\]\.id\.trim\[0\]
*297 ringosc\.dstage\[11\]\.id\.trim\[1\]
*298 ringosc\.dstage\[11\]\.id\.ts
*299 ringosc\.dstage\[1\]\.id\.d0
*300 ringosc\.dstage\[1\]\.id\.d1
*301 ringosc\.dstage\[1\]\.id\.d2
*302 ringosc\.dstage\[1\]\.id\.out
*303 ringosc\.dstage\[1\]\.id\.trim\[0\]
*304 ringosc\.dstage\[1\]\.id\.trim\[1\]
*305 ringosc\.dstage\[1\]\.id\.ts
*306 ringosc\.dstage\[2\]\.id\.d0
*307 ringosc\.dstage\[2\]\.id\.d1
*308 ringosc\.dstage\[2\]\.id\.d2
*309 ringosc\.dstage\[2\]\.id\.out
*310 ringosc\.dstage\[2\]\.id\.trim\[0\]
*311 ringosc\.dstage\[2\]\.id\.trim\[1\]
*312 ringosc\.dstage\[2\]\.id\.ts
*313 ringosc\.dstage\[3\]\.id\.d0
*314 ringosc\.dstage\[3\]\.id\.d1
*315 ringosc\.dstage\[3\]\.id\.d2
*316 ringosc\.dstage\[3\]\.id\.out
*317 ringosc\.dstage\[3\]\.id\.trim\[0\]
*318 ringosc\.dstage\[3\]\.id\.trim\[1\]
*319 ringosc\.dstage\[3\]\.id\.ts
*320 ringosc\.dstage\[4\]\.id\.d0
*321 ringosc\.dstage\[4\]\.id\.d1
*322 ringosc\.dstage\[4\]\.id\.d2
*323 ringosc\.dstage\[4\]\.id\.out
*324 ringosc\.dstage\[4\]\.id\.trim\[0\]
*325 ringosc\.dstage\[4\]\.id\.trim\[1\]
*326 ringosc\.dstage\[4\]\.id\.ts
*327 ringosc\.dstage\[5\]\.id\.d0
*328 ringosc\.dstage\[5\]\.id\.d1
*329 ringosc\.dstage\[5\]\.id\.d2
*330 ringosc\.dstage\[5\]\.id\.out
*331 ringosc\.dstage\[5\]\.id\.trim\[0\]
*332 ringosc\.dstage\[5\]\.id\.trim\[1\]
*333 ringosc\.dstage\[5\]\.id\.ts
*334 ringosc\.dstage\[6\]\.id\.d0
*335 ringosc\.dstage\[6\]\.id\.d1
*336 ringosc\.dstage\[6\]\.id\.d2
*337 ringosc\.dstage\[6\]\.id\.out
*338 ringosc\.dstage\[6\]\.id\.trim\[0\]
*339 ringosc\.dstage\[6\]\.id\.trim\[1\]
*340 ringosc\.dstage\[6\]\.id\.ts
*341 ringosc\.dstage\[7\]\.id\.d0
*342 ringosc\.dstage\[7\]\.id\.d1
*343 ringosc\.dstage\[7\]\.id\.d2
*344 ringosc\.dstage\[7\]\.id\.out
*345 ringosc\.dstage\[7\]\.id\.trim\[0\]
*346 ringosc\.dstage\[7\]\.id\.trim\[1\]
*347 ringosc\.dstage\[7\]\.id\.ts
*348 ringosc\.dstage\[8\]\.id\.d0
*349 ringosc\.dstage\[8\]\.id\.d1
*350 ringosc\.dstage\[8\]\.id\.d2
*351 ringosc\.dstage\[8\]\.id\.out
*352 ringosc\.dstage\[8\]\.id\.trim\[0\]
*353 ringosc\.dstage\[8\]\.id\.trim\[1\]
*354 ringosc\.dstage\[8\]\.id\.ts
*355 ringosc\.dstage\[9\]\.id\.d0
*356 ringosc\.dstage\[9\]\.id\.d1
*357 ringosc\.dstage\[9\]\.id\.d2
*358 ringosc\.dstage\[9\]\.id\.trim\[0\]
*359 ringosc\.dstage\[9\]\.id\.trim\[1\]
*360 ringosc\.dstage\[9\]\.id\.ts
*361 ringosc\.iss\.ctrl0
*362 ringosc\.iss\.d0
*363 ringosc\.iss\.d1
*364 ringosc\.iss\.d2
*365 ringosc\.iss\.one
*366 ringosc\.iss\.reset
*367 ringosc\.iss\.trim\[0\]
*368 ringosc\.iss\.trim\[1\]
*369 ANTENNA__228__A
*370 ANTENNA__232__A1
*371 ANTENNA__232__B2
*372 ANTENNA__247__A1
*373 ANTENNA__247__B1
*374 ANTENNA__248__B1
*375 ANTENNA__249__A
*376 ANTENNA__258__B1
*377 ANTENNA__259__B1
*378 ANTENNA__262__A1
*379 ANTENNA__279__A
*380 ANTENNA__339__A
*381 ANTENNA__341__A
*382 ANTENNA__342__A1
*383 ANTENNA__348__A_N
*384 ANTENNA__351__A2
*385 ANTENNA__352__A
*386 ANTENNA__353__A2
*387 ANTENNA__354__A2
*388 ANTENNA__357__A2
*389 ANTENNA__360__A2
*390 ANTENNA__362__A2
*391 ANTENNA__365__A2
*392 ANTENNA__366__A2
*393 ANTENNA__369__A2
*394 ANTENNA__370__A
*395 ANTENNA__372__A
*396 ANTENNA__375__B1
*397 ANTENNA__377__A2
*398 ANTENNA__379__A2
*399 ANTENNA__383__A2
*400 ANTENNA__384__B
*401 ANTENNA__386__B1
*402 ANTENNA__391__A2
*403 ANTENNA__397__B1
*404 ANTENNA__398__A2
*405 ANTENNA__399__A2
*406 ANTENNA__407__B1
*407 ANTENNA__409__A2
*408 ANTENNA__411__B1
*409 ANTENNA__412__A2
*410 ANTENNA__414__A2
*411 ANTENNA__415__A2
*412 ANTENNA__416__A
*413 ANTENNA__416__B
*414 ANTENNA__460__D
*415 FILLER_0_118
*416 FILLER_0_132
*417 FILLER_0_27
*418 FILLER_0_57
*419 FILLER_0_76
*420 FILLER_0_82
*421 FILLER_0_98
*422 FILLER_10_135
*423 FILLER_10_52
*424 FILLER_10_79
*425 FILLER_10_83
*426 FILLER_11_105
*427 FILLER_11_14
*428 FILLER_11_3
*429 FILLER_12_135
*430 FILLER_12_27
*431 FILLER_12_41
*432 FILLER_13_50
*433 FILLER_13_55
*434 FILLER_13_84
*435 FILLER_14_3
*436 FILLER_15_125
*437 FILLER_15_26
*438 FILLER_15_3
*439 FILLER_15_51
*440 FILLER_16_112
*441 FILLER_16_3
*442 FILLER_16_93
*443 FILLER_17_69
*444 FILLER_17_86
*445 FILLER_18_3
*446 FILLER_18_80
*447 FILLER_19_20
*448 FILLER_19_50
*449 FILLER_19_57
*450 FILLER_19_79
*451 FILLER_1_134
*452 FILLER_1_57
*453 FILLER_1_79
*454 FILLER_20_106
*455 FILLER_20_135
*456 FILLER_20_29
*457 FILLER_20_3
*458 FILLER_21_135
*459 FILLER_21_17
*460 FILLER_21_3
*461 FILLER_21_75
*462 FILLER_22_29
*463 FILLER_22_42
*464 FILLER_22_50
*465 FILLER_22_61
*466 FILLER_22_98
*467 FILLER_2_132
*468 FILLER_3_110
*469 FILLER_3_118
*470 FILLER_3_3
*471 FILLER_3_55
*472 FILLER_4_101
*473 FILLER_4_133
*474 FILLER_4_29
*475 FILLER_4_3
*476 FILLER_4_62
*477 FILLER_4_78
*478 FILLER_4_94
*479 FILLER_5_105
*480 FILLER_5_134
*481 FILLER_5_3
*482 FILLER_5_48
*483 FILLER_5_78
*484 FILLER_5_91
*485 FILLER_6_112
*486 FILLER_6_122
*487 FILLER_6_67
*488 FILLER_6_82
*489 FILLER_6_85
*490 FILLER_7_109
*491 FILLER_7_122
*492 FILLER_7_57
*493 FILLER_7_64
*494 FILLER_7_88
*495 FILLER_8_38
*496 FILLER_8_77
*497 FILLER_9_3
*498 FILLER_9_55
*499 FILLER_9_57
*500 FILLER_9_84
*501 PHY_0
*502 PHY_1
*503 PHY_10
*504 PHY_11
*505 PHY_12
*506 PHY_13
*507 PHY_14
*508 PHY_15
*509 PHY_16
*510 PHY_17
*511 PHY_18
*512 PHY_19
*513 PHY_2
*514 PHY_20
*515 PHY_21
*516 PHY_22
*517 PHY_23
*518 PHY_24
*519 PHY_25
*520 PHY_26
*521 PHY_27
*522 PHY_28
*523 PHY_29
*524 PHY_3
*525 PHY_30
*526 PHY_31
*527 PHY_32
*528 PHY_33
*529 PHY_34
*530 PHY_35
*531 PHY_36
*532 PHY_37
*533 PHY_38
*534 PHY_39
*535 PHY_4
*536 PHY_40
*537 PHY_41
*538 PHY_42
*539 PHY_43
*540 PHY_44
*541 PHY_45
*542 PHY_5
*543 PHY_6
*544 PHY_7
*545 PHY_8
*546 PHY_9
*547 TAP_46
*548 TAP_47
*549 TAP_48
*550 TAP_49
*551 TAP_50
*552 TAP_51
*553 TAP_52
*554 TAP_53
*555 TAP_54
*556 TAP_55
*557 TAP_56
*558 TAP_57
*559 TAP_58
*560 TAP_59
*561 TAP_60
*562 TAP_61
*563 TAP_62
*564 TAP_63
*565 TAP_64
*566 TAP_65
*567 TAP_66
*568 TAP_67
*569 TAP_68
*570 TAP_69
*571 TAP_70
*572 TAP_71
*573 TAP_72
*574 TAP_73
*575 TAP_74
*576 TAP_75
*577 TAP_76
*578 TAP_77
*579 TAP_78
*580 TAP_79
*581 TAP_80
*582 TAP_81
*583 TAP_82
*584 TAP_83
*585 TAP_84
*586 TAP_85
*587 TAP_86
*588 TAP_87
*589 TAP_88
*590 TAP_89
*591 TAP_90
*592 TAP_91
*593 TAP_92
*594 TAP_93
*595 TAP_94
*596 TAP_95
*597 _209_
*598 _210_
*599 _211_
*600 _212_
*601 _213_
*602 _214_
*603 _215_
*604 _216_
*605 _217_
*606 _218_
*607 _219_
*608 _220_
*609 _221_
*610 _222_
*611 _223_
*612 _224_
*613 _225_
*614 _226_
*615 _227_
*616 _228_
*617 _229_
*618 _230_
*619 _231_
*620 _232_
*621 _233_
*622 _234_
*623 _235_
*624 _236_
*625 _237_
*626 _238_
*627 _239_
*628 _240_
*629 _241_
*630 _242_
*631 _243_
*632 _244_
*633 _245_
*634 _246_
*635 _247_
*636 _248_
*637 _249_
*638 _250_
*639 _251_
*640 _252_
*641 _253_
*642 _254_
*643 _255_
*644 _256_
*645 _257_
*646 _258_
*647 _259_
*648 _260_
*649 _261_
*650 _262_
*651 _263_
*652 _264_
*653 _265_
*654 _266_
*655 _267_
*656 _268_
*657 _269_
*658 _270_
*659 _271_
*660 _272_
*661 _273_
*662 _274_
*663 _275_
*664 _276_
*665 _277_
*666 _278_
*667 _279_
*668 _280_
*669 _281_
*670 _282_
*671 _283_
*672 _284_
*673 _285_
*674 _286_
*675 _287_
*676 _288_
*677 _289_
*678 _290_
*679 _291_
*680 _292_
*681 _293_
*682 _294_
*683 _295_
*684 _296_
*685 _297_
*686 _298_
*687 _299_
*688 _300_
*689 _301_
*690 _302_
*691 _303_
*692 _304_
*693 _305_
*694 _306_
*695 _307_
*696 _308_
*697 _309_
*698 _310_
*699 _311_
*700 _312_
*701 _313_
*702 _314_
*703 _315_
*704 _316_
*705 _317_
*706 _318_
*707 _319_
*708 _320_
*709 _321_
*710 _322_
*711 _323_
*712 _324_
*713 _325_
*714 _326_
*715 _327_
*716 _328_
*717 _329_
*718 _330_
*719 _331_
*720 _332_
*721 _333_
*722 _334_
*723 _335_
*724 _336_
*725 _337_
*726 _338_
*727 _339_
*728 _340_
*729 _341_
*730 _342_
*731 _343_
*732 _344_
*733 _345_
*734 _346_
*735 _347_
*736 _348_
*737 _349_
*738 _350_
*739 _351_
*740 _352_
*741 _353_
*742 _354_
*743 _355_
*744 _356_
*745 _357_
*746 _358_
*747 _359_
*748 _360_
*749 _361_
*750 _362_
*751 _363_
*752 _364_
*753 _365_
*754 _366_
*755 _367_
*756 _368_
*757 _369_
*758 _370_
*759 _371_
*760 _372_
*761 _373_
*762 _374_
*763 _375_
*764 _376_
*765 _377_
*766 _378_
*767 _379_
*768 _380_
*769 _381_
*770 _382_
*771 _383_
*772 _384_
*773 _385_
*774 _386_
*775 _387_
*776 _388_
*777 _389_
*778 _390_
*779 _391_
*780 _392_
*781 _393_
*782 _394_
*783 _395_
*784 _396_
*785 _397_
*786 _398_
*787 _399_
*788 _400_
*789 _401_
*790 _402_
*791 _403_
*792 _404_
*793 _405_
*794 _406_
*795 _407_
*796 _408_
*797 _409_
*798 _410_
*799 _411_
*800 _412_
*801 _413_
*802 _414_
*803 _415_
*804 _416_
*805 _417_
*806 _418_
*807 _419_
*808 _420_
*809 _421_
*810 _422_
*811 _423_
*812 _424_
*813 _425_
*814 _426_
*815 _427_
*816 _428_
*817 _429_
*818 _430_
*819 _431_
*820 _432_
*821 _433_
*822 _434_
*823 _435_
*824 _436_
*825 _437_
*826 _438_
*827 _439_
*828 _440_
*829 _441_
*830 _442_
*831 _443_
*832 _444_
*833 _445_
*834 _446_
*835 _447_
*836 _448_
*837 _449_
*838 _450_
*839 _451_
*840 _452_
*841 _453_
*842 _454_
*843 _455_
*844 _456_
*845 _457_
*846 _458_
*847 _459_
*848 _460_
*849 _461_
*850 _462_
*851 _463_
*852 _464_
*853 _465_
*854 _466_
*855 _467_
*856 clockp_buffer_0
*857 clockp_buffer_1
*858 ringosc\.dstage\[0\]\.id\.delaybuf0
*859 ringosc\.dstage\[0\]\.id\.delaybuf1
*860 ringosc\.dstage\[0\]\.id\.delayen0
*861 ringosc\.dstage\[0\]\.id\.delayen1
*862 ringosc\.dstage\[0\]\.id\.delayenb0
*863 ringosc\.dstage\[0\]\.id\.delayenb1
*864 ringosc\.dstage\[0\]\.id\.delayint0
*865 ringosc\.dstage\[10\]\.id\.delaybuf0
*866 ringosc\.dstage\[10\]\.id\.delaybuf1
*867 ringosc\.dstage\[10\]\.id\.delayen0
*868 ringosc\.dstage\[10\]\.id\.delayen1
*869 ringosc\.dstage\[10\]\.id\.delayenb0
*870 ringosc\.dstage\[10\]\.id\.delayenb1
*871 ringosc\.dstage\[10\]\.id\.delayint0
*872 ringosc\.dstage\[11\]\.id\.delaybuf0
*873 ringosc\.dstage\[11\]\.id\.delaybuf1
*874 ringosc\.dstage\[11\]\.id\.delayen0
*875 ringosc\.dstage\[11\]\.id\.delayen1
*876 ringosc\.dstage\[11\]\.id\.delayenb0
*877 ringosc\.dstage\[11\]\.id\.delayenb1
*878 ringosc\.dstage\[11\]\.id\.delayint0
*879 ringosc\.dstage\[1\]\.id\.delaybuf0
*880 ringosc\.dstage\[1\]\.id\.delaybuf1
*881 ringosc\.dstage\[1\]\.id\.delayen0
*882 ringosc\.dstage\[1\]\.id\.delayen1
*883 ringosc\.dstage\[1\]\.id\.delayenb0
*884 ringosc\.dstage\[1\]\.id\.delayenb1
*885 ringosc\.dstage\[1\]\.id\.delayint0
*886 ringosc\.dstage\[2\]\.id\.delaybuf0
*887 ringosc\.dstage\[2\]\.id\.delaybuf1
*888 ringosc\.dstage\[2\]\.id\.delayen0
*889 ringosc\.dstage\[2\]\.id\.delayen1
*890 ringosc\.dstage\[2\]\.id\.delayenb0
*891 ringosc\.dstage\[2\]\.id\.delayenb1
*892 ringosc\.dstage\[2\]\.id\.delayint0
*893 ringosc\.dstage\[3\]\.id\.delaybuf0
*894 ringosc\.dstage\[3\]\.id\.delaybuf1
*895 ringosc\.dstage\[3\]\.id\.delayen0
*896 ringosc\.dstage\[3\]\.id\.delayen1
*897 ringosc\.dstage\[3\]\.id\.delayenb0
*898 ringosc\.dstage\[3\]\.id\.delayenb1
*899 ringosc\.dstage\[3\]\.id\.delayint0
*900 ringosc\.dstage\[4\]\.id\.delaybuf0
*901 ringosc\.dstage\[4\]\.id\.delaybuf1
*902 ringosc\.dstage\[4\]\.id\.delayen0
*903 ringosc\.dstage\[4\]\.id\.delayen1
*904 ringosc\.dstage\[4\]\.id\.delayenb0
*905 ringosc\.dstage\[4\]\.id\.delayenb1
*906 ringosc\.dstage\[4\]\.id\.delayint0
*907 ringosc\.dstage\[5\]\.id\.delaybuf0
*908 ringosc\.dstage\[5\]\.id\.delaybuf1
*909 ringosc\.dstage\[5\]\.id\.delayen0
*910 ringosc\.dstage\[5\]\.id\.delayen1
*911 ringosc\.dstage\[5\]\.id\.delayenb0
*912 ringosc\.dstage\[5\]\.id\.delayenb1
*913 ringosc\.dstage\[5\]\.id\.delayint0
*914 ringosc\.dstage\[6\]\.id\.delaybuf0
*915 ringosc\.dstage\[6\]\.id\.delaybuf1
*916 ringosc\.dstage\[6\]\.id\.delayen0
*917 ringosc\.dstage\[6\]\.id\.delayen1
*918 ringosc\.dstage\[6\]\.id\.delayenb0
*919 ringosc\.dstage\[6\]\.id\.delayenb1
*920 ringosc\.dstage\[6\]\.id\.delayint0
*921 ringosc\.dstage\[7\]\.id\.delaybuf0
*922 ringosc\.dstage\[7\]\.id\.delaybuf1
*923 ringosc\.dstage\[7\]\.id\.delayen0
*924 ringosc\.dstage\[7\]\.id\.delayen1
*925 ringosc\.dstage\[7\]\.id\.delayenb0
*926 ringosc\.dstage\[7\]\.id\.delayenb1
*927 ringosc\.dstage\[7\]\.id\.delayint0
*928 ringosc\.dstage\[8\]\.id\.delaybuf0
*929 ringosc\.dstage\[8\]\.id\.delaybuf1
*930 ringosc\.dstage\[8\]\.id\.delayen0
*931 ringosc\.dstage\[8\]\.id\.delayen1
*932 ringosc\.dstage\[8\]\.id\.delayenb0
*933 ringosc\.dstage\[8\]\.id\.delayenb1
*934 ringosc\.dstage\[8\]\.id\.delayint0
*935 ringosc\.dstage\[9\]\.id\.delaybuf0
*936 ringosc\.dstage\[9\]\.id\.delaybuf1
*937 ringosc\.dstage\[9\]\.id\.delayen0
*938 ringosc\.dstage\[9\]\.id\.delayen1
*939 ringosc\.dstage\[9\]\.id\.delayenb0
*940 ringosc\.dstage\[9\]\.id\.delayenb1
*941 ringosc\.dstage\[9\]\.id\.delayint0
*942 ringosc\.ibufp00
*943 ringosc\.ibufp01
*944 ringosc\.ibufp10
*945 ringosc\.ibufp11
*946 ringosc\.iss\.const1
*947 ringosc\.iss\.ctrlen0
*948 ringosc\.iss\.delaybuf0
*949 ringosc\.iss\.delayen0
*950 ringosc\.iss\.delayen1
*951 ringosc\.iss\.delayenb0
*952 ringosc\.iss\.delayenb1
*953 ringosc\.iss\.delayint0
*954 ringosc\.iss\.reseten0

*PORTS
clockp[0] O
clockp[1] O
dco I
div[0] I
div[1] I
div[2] I
div[3] I
div[4] I
enable I
ext_trim[0] I
ext_trim[10] I
ext_trim[11] I
ext_trim[12] I
ext_trim[13] I
ext_trim[14] I
ext_trim[15] I
ext_trim[16] I
ext_trim[17] I
ext_trim[18] I
ext_trim[19] I
ext_trim[1] I
ext_trim[20] I
ext_trim[21] I
ext_trim[22] I
ext_trim[23] I
ext_trim[24] I
ext_trim[25] I
ext_trim[2] I
ext_trim[3] I
ext_trim[4] I
ext_trim[5] I
ext_trim[6] I
ext_trim[7] I
ext_trim[8] I
ext_trim[9] I
osc I
resetb I

*D_NET *3 0.00278022
*CONN
*P clockp[0] O
*I *856:X O *D sky130_fd_sc_hd__clkbuf_16
*CAP
1 clockp[0] 0.00112394
2 *856:X 0.00112394
3 clockp[0] clockp[1] 6.49e-05
4 clockp[0] *369:DIODE 7.06865e-05
5 clockp[0] *605:A1 0
6 clockp[0] *621:A 4.21973e-05
7 clockp[0] *852:CLK 0.000309612
8 clockp[0] *852:D 0
9 clockp[0] *39:5 0
10 clockp[0] *102:8 4.49415e-05
11 clockp[0] *256:21 0
*RES
1 *856:X clockp[0] 15.9058 
*END

*D_NET *4 0.00124255
*CONN
*P clockp[1] O
*I *857:X O *D sky130_fd_sc_hd__clkbuf_16
*CAP
1 clockp[1] 0.000588824
2 *857:X 0.000588824
3 clockp[1] *605:A1 0
4 clockp[1] *6:10 0
5 clockp[1] *39:5 0
6 clockp[0] clockp[1] 6.49e-05
*RES
1 *857:X clockp[1] 6.28903 
*END

*D_NET *5 0.0111036
*CONN
*P dco I
*I *383:DIODE I *D sky130_fd_sc_hd__diode_2
*I *381:DIODE I *D sky130_fd_sc_hd__diode_2
*I *400:DIODE I *D sky130_fd_sc_hd__diode_2
*I *772:B I *D sky130_fd_sc_hd__nor2_2
*I *729:A I *D sky130_fd_sc_hd__nor2_2
*I *380:DIODE I *D sky130_fd_sc_hd__diode_2
*I *736:A_N I *D sky130_fd_sc_hd__and2b_2
*I *727:A I *D sky130_fd_sc_hd__buf_2
*I *758:A I *D sky130_fd_sc_hd__buf_2
*I *394:DIODE I *D sky130_fd_sc_hd__diode_2
*I *740:A I *D sky130_fd_sc_hd__buf_2
*I *385:DIODE I *D sky130_fd_sc_hd__diode_2
*CAP
1 dco 0.000541972
2 *383:DIODE 0.000101765
3 *381:DIODE 0
4 *400:DIODE 0.000100758
5 *772:B 4.12491e-05
6 *729:A 0
7 *380:DIODE 5.02477e-05
8 *736:A_N 0
9 *727:A 4.52173e-05
10 *758:A 0
11 *394:DIODE 0
12 *740:A 3.92569e-05
13 *385:DIODE 9.51672e-05
14 *5:91 0.000537019
15 *5:77 0.000809473
16 *5:64 0.000577673
17 *5:61 0.000188821
18 *5:53 0.000156274
19 *5:50 0.000250652
20 *5:39 4.52173e-05
21 *5:37 0.000858963
22 *5:28 0.00109287
23 *5:17 0.000539105
24 *5:5 0.000834613
25 *380:DIODE *140:10 3.42636e-05
26 *380:DIODE *193:9 0
27 *380:DIODE *267:25 0
28 *383:DIODE *700:A 5.10957e-05
29 *383:DIODE *174:18 7.95798e-05
30 *383:DIODE *197:24 4.19884e-05
31 *383:DIODE *201:8 0.000131773
32 *385:DIODE *639:B 0
33 *385:DIODE *650:B1 0
34 *385:DIODE *855:RESET_B 1.01661e-05
35 *385:DIODE *125:12 7.4027e-05
36 *400:DIODE *610:A 2.39856e-05
37 *400:DIODE *772:A 4.66108e-05
38 *727:A *214:16 5.09431e-05
39 *727:A *279:27 0.000160342
40 *740:A *12:8 0
41 *772:B *27:12 5.75434e-05
42 *772:B *92:25 1.88602e-05
43 *772:B *92:57 3.86832e-05
44 *5:5 *11:8 0
45 *5:5 *12:8 0
46 *5:17 *11:8 0
47 *5:17 *12:8 0
48 *5:28 *860:A 1.90091e-05
49 *5:28 *891:A 1.34687e-05
50 *5:28 *891:TE_B 1.79174e-05
51 *5:28 *12:8 0
52 *5:28 *204:42 0
53 *5:37 *700:A 3.96421e-05
54 *5:37 *858:A 2.69153e-05
55 *5:37 *860:A 2.07384e-05
56 *5:37 *862:A 2.01737e-05
57 *5:37 *862:TE_B 6.28928e-05
58 *5:37 *891:TE_B 2.01737e-05
59 *5:37 *279:27 6.04372e-05
60 *5:37 *280:8 0.000199021
61 *5:37 *283:5 3.0933e-05
62 *5:50 *700:A 7.2704e-05
63 *5:50 *197:24 1.15383e-05
64 *5:53 *696:A 0.000197269
65 *5:53 *197:24 0.000121043
66 *5:53 *311:25 1.46828e-05
67 *5:61 *762:B 0
68 *5:61 *197:19 2.49909e-05
69 *5:61 *197:24 0.000105669
70 *5:61 *311:25 0.000234674
71 *5:64 *679:A 5.32293e-05
72 *5:64 *140:10 3.96421e-05
73 *5:64 *214:16 9.3582e-05
74 *5:77 *158:7 0.000119873
75 *5:77 *159:11 7.21318e-05
76 *5:77 *193:12 4.28112e-06
77 *5:77 *193:65 3.5361e-05
78 *5:77 *279:27 0.000227934
79 *5:91 *91:9 0.000136434
80 *5:91 *91:17 0.000145332
81 *5:91 *92:30 0.00069074
82 *5:91 *142:13 1.07474e-05
83 *5:91 *159:11 5.28854e-05
84 *5:91 *193:9 2.1832e-05
85 *5:91 *193:65 3.44362e-05
86 *5:91 *193:86 4.87393e-05
87 *5:91 *197:11 0.000161238
88 *5:91 *197:19 0.000115078
*RES
1 dco *5:5 1.21347 
2 *5:5 *385:DIODE 5.8625 
3 *5:5 *5:17 1.00413 
4 *5:17 *740:A 4.0875 
5 *5:17 *5:28 5.7725 
6 *5:28 *394:DIODE 1.6 
7 *5:28 *5:37 12.29 
8 *5:37 *5:39 2 
9 *5:39 *758:A 1.6 
10 *5:39 *727:A 3.085 
11 *5:37 *5:50 1.635 
12 *5:50 *5:53 4.175 
13 *5:53 *736:A_N 1.6 
14 *5:53 *5:61 2.535 
15 *5:61 *5:64 4.655 
16 *5:64 *380:DIODE 4.47 
17 *5:64 *5:77 9.805 
18 *5:77 *729:A 3.6 
19 *5:77 *5:91 3.57063 
20 *5:91 *772:B 4.3425 
21 *5:91 *400:DIODE 4.74 
22 *5:61 *381:DIODE 1.6 
23 *5:50 *383:DIODE 6.51 
*END

*D_NET *6 0.00852262
*CONN
*P div[0] I
*I *620:B2 I *D sky130_fd_sc_hd__o22a_2
*I *379:DIODE I *D sky130_fd_sc_hd__diode_2
*I *371:DIODE I *D sky130_fd_sc_hd__diode_2
*I *667:A I *D sky130_fd_sc_hd__and2_2
*CAP
1 div[0] 0.000324658
2 *620:B2 0
3 *379:DIODE 0.00132385
4 *371:DIODE 5.02596e-05
5 *667:A 0
6 *6:25 0.00228589
7 *6:19 0.00104416
8 *6:10 0.00045704
9 *371:DIODE *626:B 7.96104e-06
10 *371:DIODE *103:5 2.68526e-05
11 *379:DIODE *633:A 0.000192174
12 *379:DIODE *670:D 0.000307077
13 *379:DIODE *717:A2 7.80764e-05
14 *379:DIODE *719:A2 0.00022538
15 *379:DIODE *836:RESET_B 8.64154e-05
16 *379:DIODE *851:D 2.15025e-05
17 *379:DIODE *84:18 7.60081e-05
18 *379:DIODE *183:6 0.000243989
19 *379:DIODE *186:16 0
20 *379:DIODE *251:30 0
21 *6:10 *621:A 6.44676e-05
22 *6:10 *621:B 7.5431e-05
23 *6:10 *857:A 0.00015139
24 *6:10 *7:8 0
25 *6:10 *102:8 0
26 *6:19 *667:B 0.000279787
27 *6:19 *668:A 0.000239807
28 *6:19 *100:11 2.28636e-05
29 *6:25 *638:A2 0.00015313
30 *6:25 *638:D1 0
31 *6:25 *647:A1 3.11843e-05
32 *6:25 *666:A 7.67978e-05
33 *6:25 *670:D 0.000134119
34 *6:25 *8:31 0.00024064
35 *6:25 *9:46 6.54254e-05
36 *6:25 *102:8 0.000200338
37 *6:25 *116:14 3.59533e-05
38 clockp[1] *6:10 0
*RES
1 div[0] *6:10 6.1683 
2 *6:10 *667:A 1.6 
3 *6:10 *6:19 3.93 
4 *6:19 *6:25 9.15237 
5 *6:25 *371:DIODE 4.7825 
6 *6:25 *379:DIODE 17.8058 
7 *6:19 *620:B2 1.6 
*END

*D_NET *7 0.00655524
*CONN
*P div[1] I
*I *620:A1 I *D sky130_fd_sc_hd__o22a_2
*I *370:DIODE I *D sky130_fd_sc_hd__diode_2
*I *616:A I *D sky130_fd_sc_hd__nand2_2
*I *369:DIODE I *D sky130_fd_sc_hd__diode_2
*CAP
1 div[1] 0.000716836
2 *620:A1 0
3 *370:DIODE 0.000810023
4 *616:A 1.85694e-05
5 *369:DIODE 0.000463803
6 *7:22 0.000952956
7 *7:10 0.000680636
8 *7:8 0.000809306
9 *369:DIODE *638:A1 3.09233e-05
10 *369:DIODE *852:D 6.54766e-05
11 *369:DIODE *102:8 7.92086e-05
12 *370:DIODE *614:B 6.27438e-05
13 *370:DIODE *632:A 0.000194694
14 *370:DIODE *632:B 4.65643e-05
15 *370:DIODE *633:A 0.000116844
16 *370:DIODE *709:C 7.22354e-05
17 *370:DIODE *715:B1 8.40269e-05
18 *370:DIODE *837:D 0
19 *370:DIODE *84:27 0.000182062
20 *370:DIODE *89:57 0.000334193
21 *370:DIODE *95:6 6.00081e-05
22 *370:DIODE *249:79 0.000153093
23 *616:A *614:B 0
24 *7:8 *637:A 0
25 *7:8 *637:B 1.01661e-05
26 *7:8 *638:A1 7.62713e-05
27 *7:8 *8:5 0
28 *7:8 *8:31 0
29 *7:8 *118:11 3.96153e-05
30 *7:10 *616:B 0
31 *7:10 *624:B 0
32 *7:10 *637:A 0
33 *7:10 *638:A1 0.00015212
34 *7:22 *97:5 0.000239813
35 *7:22 *249:79 3.23663e-05
36 clockp[0] *369:DIODE 7.06865e-05
37 *6:10 *7:8 0
*RES
1 div[1] *7:8 2.8275 
2 *7:8 *7:10 1.89 
3 *7:10 *369:DIODE 9.825 
4 *7:10 *7:22 4.865 
5 *7:22 *616:A 1.96 
6 *7:22 *370:DIODE 22.235 
7 *7:8 *620:A1 3.6 
*END

*D_NET *8 0.00412598
*CONN
*P div[2] I
*I *375:DIODE I *D sky130_fd_sc_hd__diode_2
*I *637:A I *D sky130_fd_sc_hd__nor2_2
*I *635:B1 I *D sky130_fd_sc_hd__a32o_2
*I *373:DIODE I *D sky130_fd_sc_hd__diode_2
*CAP
1 div[2] 0.000217414
2 *375:DIODE 0
3 *637:A 0.000298775
4 *635:B1 0.000226915
5 *373:DIODE 0
6 *8:31 0.000924492
7 *8:8 0.000234162
8 *8:5 0.000850377
9 *635:B1 *635:A1 0.00011623
10 *635:B1 *635:B2 9.67498e-05
11 *635:B1 *648:A 3.82454e-05
12 *635:B1 *648:B 6.16475e-05
13 *635:B1 *651:A3 4.23986e-05
14 *635:B1 *857:A 0.000106533
15 *637:A *620:A2 5.53774e-05
16 *637:A *624:B 0
17 *637:A *637:B 0.000229091
18 *637:A *668:A 9.13148e-05
19 *637:A *669:C 9.50342e-06
20 *637:A *39:5 7.08455e-05
21 *637:A *96:7 1.37328e-05
22 *8:5 *9:5 0
23 *8:8 *648:B 1.00941e-05
24 *8:8 *857:A 1.92979e-05
25 *8:31 *635:B2 1.00941e-05
26 *8:31 *637:B 7.09935e-05
27 *8:31 *670:D 1.93834e-05
28 *8:31 *39:5 7.16782e-05
29 *6:25 *8:31 0.00024064
30 *7:8 *637:A 0
31 *7:8 *8:5 0
32 *7:8 *8:31 0
33 *7:10 *637:A 0
*RES
1 div[2] *8:5 0.572533 
2 *8:5 *8:8 0.7325 
3 *8:8 *373:DIODE 3.6 
4 *8:8 *635:B1 8.8275 
5 *8:5 *8:31 3.58237 
6 *8:31 *637:A 13.465 
7 *8:31 *375:DIODE 3.6 
*END

*D_NET *9 0.00723095
*CONN
*P div[3] I
*I *374:DIODE I *D sky130_fd_sc_hd__diode_2
*I *377:DIODE I *D sky130_fd_sc_hd__diode_2
*I *636:B1 I *D sky130_fd_sc_hd__a21oi_2
*I *635:A1 I *D sky130_fd_sc_hd__a32o_2
*I *647:B1 I *D sky130_fd_sc_hd__a21o_2
*I *372:DIODE I *D sky130_fd_sc_hd__diode_2
*CAP
1 div[3] 0.000473504
2 *374:DIODE 0
3 *377:DIODE 0.000462203
4 *636:B1 1.03911e-05
5 *635:A1 0.00014315
6 *647:B1 6.96372e-05
7 *372:DIODE 5.53769e-05
8 *9:46 0.00126997
9 *9:12 0.000213257
10 *9:8 0.000331439
11 *9:7 0.000110438
12 *9:5 0.00128127
13 *372:DIODE *648:B 0.000160635
14 *372:DIODE *666:A 8.8266e-05
15 *372:DIODE *666:C 2.75145e-05
16 *372:DIODE *118:11 2.0514e-05
17 *377:DIODE *623:B 1.91597e-05
18 *377:DIODE *625:B1 0.000197264
19 *377:DIODE *632:B 9.21068e-05
20 *377:DIODE *633:B 8.23457e-05
21 *377:DIODE *634:A 0.000386779
22 *377:DIODE *635:B2 2.79874e-05
23 *377:DIODE *670:D 3.64998e-06
24 *377:DIODE *709:B 0
25 *377:DIODE *39:5 9.07821e-05
26 *377:DIODE *107:10 3.31868e-05
27 *377:DIODE *252:31 0
28 *377:DIODE *257:15 1.91597e-05
29 *635:A1 *635:B2 2.02638e-05
30 *636:B1 *124:11 9.58678e-06
31 *647:B1 *648:B 0.000122331
32 *647:B1 *666:A 3.66286e-05
33 *647:B1 *668:B 1.08758e-05
34 *647:B1 *669:A 3.38341e-05
35 *647:B1 *118:11 8.57237e-05
36 *9:5 *10:8 0
37 *9:8 *636:A1 0
38 *9:8 *116:14 9.29903e-05
39 *9:8 *117:8 0.000187654
40 *9:8 *124:11 8.41703e-06
41 *9:12 *638:D1 1.53032e-05
42 *9:12 *666:A 0.000181685
43 *9:12 *666:B 0.00011852
44 *9:12 *116:14 0.000104236
45 *9:12 *117:8 0.00013677
46 *9:46 *635:B2 3.83889e-05
47 *9:46 *39:5 3.03231e-05
48 *9:46 *103:18 0.000145772
49 *9:46 *127:8 0
50 *635:B1 *635:A1 0.00011623
51 *6:25 *9:46 6.54254e-05
52 *8:5 *9:5 0
*RES
1 div[3] *9:5 0.922133 
2 *9:5 *9:7 0.5 
3 *9:7 *9:8 2.5275 
4 *9:8 *9:12 5.42 
5 *9:12 *372:DIODE 3.43 
6 *9:12 *647:B1 3.79 
7 *9:8 *635:A1 5.43 
8 *9:7 *636:B1 3.8325 
9 *9:5 *9:46 4.44777 
10 *9:46 *377:DIODE 17.14 
11 *9:46 *374:DIODE 3.6 
*END

*D_NET *10 0.00275249
*CONN
*P div[4] I
*I *376:DIODE I *D sky130_fd_sc_hd__diode_2
*I *646:B1 I *D sky130_fd_sc_hd__o21a_2
*I *650:A1 I *D sky130_fd_sc_hd__o211a_2
*I *378:DIODE I *D sky130_fd_sc_hd__diode_2
*CAP
1 div[4] 0.000277252
2 *376:DIODE 0.000105582
3 *646:B1 0
4 *650:A1 5.04886e-05
5 *378:DIODE 0.000108802
6 *10:36 0.000266364
7 *10:22 0.000379942
8 *10:8 0.000554725
9 *376:DIODE *412:DIODE 6.47326e-05
10 *376:DIODE *127:8 2.75229e-05
11 *378:DIODE *645:A 5.56629e-05
12 *378:DIODE *650:B1 7.70758e-05
13 *378:DIODE *857:A 9.53666e-05
14 *378:DIODE *122:21 0
15 *378:DIODE *124:11 0
16 *378:DIODE *124:24 0
17 *650:A1 *646:A2 1.12643e-05
18 *650:A1 *650:A2 1.20741e-05
19 *10:8 *645:A 7.3917e-05
20 *10:8 *650:B1 8.17606e-05
21 *10:8 *11:8 0
22 *10:22 *645:B 1.03423e-05
23 *10:22 *646:A2 0.000234674
24 *10:22 *650:B1 1.34594e-05
25 *10:36 *412:DIODE 4.99619e-05
26 *10:36 *646:A2 0.000188069
27 *10:36 *650:A2 0
28 *10:36 *131:8 1.34503e-05
29 *9:5 *10:8 0
*RES
1 div[4] *10:8 2.1283 
2 *10:8 *378:DIODE 6.045 
3 *10:8 *10:22 4.865 
4 *10:22 *650:A1 6.32375 
5 *10:22 *10:36 3.135 
6 *10:36 *646:B1 1.6 
7 *10:36 *376:DIODE 3.775 
*END

*D_NET *11 0.00248543
*CONN
*P enable I
*I *804:A I *D sky130_fd_sc_hd__nand2_2
*I *412:DIODE I *D sky130_fd_sc_hd__diode_2
*CAP
1 enable 0.000707075
2 *804:A 2.11983e-05
3 *412:DIODE 0.000195266
4 *11:8 0.000923539
5 *412:DIODE *804:B 0
6 *412:DIODE *39:5 0
7 *412:DIODE *125:12 8.08439e-05
8 *412:DIODE *244:10 3.05295e-05
9 *804:A *254:27 4.82919e-05
10 *11:8 *854:CLK 6.44566e-05
11 *11:8 *855:D 9.54399e-05
12 *11:8 *855:RESET_B 0.000110616
13 *11:8 *125:12 5.05794e-05
14 *11:8 *244:10 4.2899e-05
15 *376:DIODE *412:DIODE 6.47326e-05
16 *5:5 *11:8 0
17 *5:17 *11:8 0
18 *10:8 *11:8 0
19 *10:36 *412:DIODE 4.99619e-05
*RES
1 enable *11:8 4.72903 
2 *11:8 *412:DIODE 7.065 
3 *11:8 *804:A 4.05 
*END

*D_NET *12 0.00430207
*CONN
*P ext_trim[0] I
*I *730:A1 I *D sky130_fd_sc_hd__a21o_2
*I *382:DIODE I *D sky130_fd_sc_hd__diode_2
*CAP
1 ext_trim[0] 0.0013296
2 *730:A1 0.00019991
3 *382:DIODE 0.000152212
4 *12:8 0.00168172
5 *382:DIODE *599:S 0.000254644
6 *382:DIODE *830:A 4.5783e-05
7 *382:DIODE *854:D 4.70343e-05
8 *382:DIODE *244:10 0