*SPEF "ieee 1481-1999"
*DESIGN "digital_pll"
*DATE "11:11:11 Fri 11 11, 1111"
*VENDOR "OpenRCX"
*PROGRAM "Parallel Extraction"
*VERSION "1.0"
*DESIGN_FLOW "NAME_SCOPE LOCAL" "PIN_CAP NONE"
*DIVIDER /
*DELIMITER :
*BUS_DELIMITER []
*T_UNIT 1 NS
*C_UNIT 1 PF
*R_UNIT 1 OHM
*L_UNIT 1 HENRY

*NAME_MAP
*3 clockp[0]
*4 clockp[1]
*5 dco
*6 div[0]
*7 div[1]
*8 div[2]
*9 div[3]
*10 div[4]
*11 enable
*12 ext_trim[0]
*13 ext_trim[10]
*14 ext_trim[11]
*15 ext_trim[12]
*16 ext_trim[13]
*17 ext_trim[14]
*18 ext_trim[15]
*19 ext_trim[16]
*20 ext_trim[17]
*21 ext_trim[18]
*22 ext_trim[19]
*23 ext_trim[1]
*24 ext_trim[20]
*25 ext_trim[21]
*26 ext_trim[22]
*27 ext_trim[23]
*28 ext_trim[24]
*29 ext_trim[25]
*30 ext_trim[2]
*31 ext_trim[3]
*32 ext_trim[4]
*33 ext_trim[5]
*34 ext_trim[6]
*35 ext_trim[7]
*36 ext_trim[8]
*37 ext_trim[9]
*38 osc
*39 resetb
*40 _000_
*41 _001_
*42 _002_
*43 _003_
*44 _004_
*45 _005_
*46 _006_
*47 _007_
*48 _008_
*49 _009_
*50 _010_
*51 _011_
*52 _012_
*53 _013_
*54 _014_
*55 _015_
*56 _016_
*57 _017_
*58 _018_
*59 _019_
*60 _020_
*61 _021_
*62 _022_
*63 _023_
*64 _024_
*65 _025_
*66 _026_
*67 _027_
*68 _028_
*69 _029_
*70 _030_
*71 _031_
*72 _032_
*73 _033_
*74 _034_
*75 _035_
*76 _036_
*77 _037_
*78 _038_
*79 _039_
*80 _040_
*81 _041_
*82 _042_
*83 _043_
*84 _044_
*85 _045_
*86 _046_
*87 _047_
*88 _048_
*89 _049_
*90 _050_
*91 _051_
*92 _052_
*93 _053_
*94 _054_
*95 _055_
*96 _056_
*97 _057_
*98 _058_
*99 _059_
*100 _060_
*101 _061_
*102 _062_
*103 _063_
*104 _064_
*105 _065_
*106 _066_
*107 _067_
*108 _068_
*109 _069_
*110 _070_
*111 _071_
*112 _072_
*113 _073_
*114 _074_
*115 _075_
*116 _076_
*117 _077_
*118 _078_
*119 _079_
*120 _080_
*121 _081_
*122 _082_
*123 _083_
*124 _084_
*125 _085_
*126 _086_
*127 _087_
*128 _088_
*129 _089_
*130 _090_
*131 _091_
*132 _092_
*133 _093_
*134 _094_
*135 _095_
*136 _096_
*137 _097_
*138 _098_
*139 _099_
*140 _100_
*141 _101_
*142 _102_
*143 _103_
*144 _104_
*145 _105_
*146 _106_
*147 _107_
*148 _108_
*149 _109_
*150 _110_
*151 _111_
*152 _112_
*153 _113_
*154 _114_
*155 _115_
*156 _116_
*157 _117_
*158 _118_
*159 _119_
*160 _120_
*161 _121_
*162 _122_
*163 _123_
*164 _124_
*165 _125_
*166 _126_
*167 _127_
*168 _128_
*169 _129_
*170 _130_
*171 _131_
*172 _132_
*173 _133_
*174 _134_
*175 _135_
*176 _136_
*177 _137_
*178 _138_
*179 _139_
*180 _140_
*181 _141_
*182 _142_
*183 _143_
*184 _144_
*185 _145_
*186 _146_
*187 _147_
*188 _148_
*189 _149_
*190 _150_
*191 _151_
*192 _152_
*193 _153_
*194 _154_
*195 _155_
*196 _156_
*197 _157_
*198 _158_
*199 _159_
*200 _160_
*201 _161_
*202 _162_
*203 _163_
*204 _164_
*205 _165_
*206 _166_
*207 _167_
*208 _168_
*209 _169_
*210 _170_
*211 _171_
*212 _172_
*213 _173_
*214 _174_
*215 _175_
*216 _176_
*217 _177_
*218 _178_
*219 _179_
*220 _180_
*221 _181_
*222 _182_
*223 _183_
*224 _184_
*225 _185_
*226 _186_
*227 _187_
*228 _188_
*229 _189_
*230 _190_
*231 _191_
*232 _192_
*233 _193_
*234 _194_
*235 _195_
*236 _196_
*237 _197_
*238 _198_
*239 _199_
*240 _200_
*241 _201_
*242 _202_
*243 _203_
*244 _204_
*245 _205_
*246 _206_
*247 _207_
*248 _208_
*249 pll_control\.clock
*250 pll_control\.count0\[0\]
*251 pll_control\.count0\[1\]
*252 pll_control\.count0\[2\]
*253 pll_control\.count0\[3\]
*254 pll_control\.count0\[4\]
*255 pll_control\.count1\[0\]
*256 pll_control\.count1\[1\]
*257 pll_control\.count1\[2\]
*258 pll_control\.count1\[3\]
*259 pll_control\.count1\[4\]
*260 pll_control\.oscbuf\[0\]
*261 pll_control\.oscbuf\[1\]
*262 pll_control\.oscbuf\[2\]
*263 pll_control\.prep\[0\]
*264 pll_control\.prep\[1\]
*265 pll_control\.prep\[2\]
*266 pll_control\.tint\[0\]
*267 pll_control\.tint\[1\]
*268 pll_control\.tint\[2\]
*269 pll_control\.tint\[3\]
*270 pll_control\.tint\[4\]
*271 pll_control\.tval\[0\]
*272 pll_control\.tval\[1\]
*273 ringosc\.c\[0\]
*274 ringosc\.c\[1\]
*275 ringosc\.clockp\[1\]
*276 ringosc\.dstage\[0\]\.id\.d0
*277 ringosc\.dstage\[0\]\.id\.d1
*278 ringosc\.dstage\[0\]\.id\.d2
*279 ringosc\.dstage\[0\]\.id\.in
*280 ringosc\.dstage\[0\]\.id\.out
*281 ringosc\.dstage\[0\]\.id\.trim\[0\]
*282 ringosc\.dstage\[0\]\.id\.trim\[1\]
*283 ringosc\.dstage\[0\]\.id\.ts
*284 ringosc\.dstage\[10\]\.id\.d0
*285 ringosc\.dstage\[10\]\.id\.d1
*286 ringosc\.dstage\[10\]\.id\.d2
*287 ringosc\.dstage\[10\]\.id\.in
*288 ringosc\.dstage\[10\]\.id\.out
*289 ringosc\.dstage\[10\]\.id\.trim\[0\]
*290 ringosc\.dstage\[10\]\.id\.trim\[1\]
*291 ringosc\.dstage\[10\]\.id\.ts
*292 ringosc\.dstage\[11\]\.id\.d0
*293 ringosc\.dstage\[11\]\.id\.d1
*294 ringosc\.dstage\[11\]\.id\.d2
*295 ringosc\.dstage\[11\]\.id\.out
*296 ringosc\.dstage\[11\]\.id\.trim\[0\]
*297 ringosc\.dstage\[11\]\.id\.trim\[1\]
*298 ringosc\.dstage\[11\]\.id\.ts
*299 ringosc\.dstage\[1\]\.id\.d0
*300 ringosc\.dstage\[1\]\.id\.d1
*301 ringosc\.dstage\[1\]\.id\.d2
*302 ringosc\.dstage\[1\]\.id\.out
*303 ringosc\.dstage\[1\]\.id\.trim\[0\]
*304 ringosc\.dstage\[1\]\.id\.trim\[1\]
*305 ringosc\.dstage\[1\]\.id\.ts
*306 ringosc\.dstage\[2\]\.id\.d0
*307 ringosc\.dstage\[2\]\.id\.d1
*308 ringosc\.dstage\[2\]\.id\.d2
*309 ringosc\.dstage\[2\]\.id\.out
*310 ringosc\.dstage\[2\]\.id\.trim\[0\]
*311 ringosc\.dstage\[2\]\.id\.trim\[1\]
*312 ringosc\.dstage\[2\]\.id\.ts
*313 ringosc\.dstage\[3\]\.id\.d0
*314 ringosc\.dstage\[3\]\.id\.d1
*315 ringosc\.dstage\[3\]\.id\.d2
*316 ringosc\.dstage\[3\]\.id\.out
*317 ringosc\.dstage\[3\]\.id\.trim\[0\]
*318 ringosc\.dstage\[3\]\.id\.trim\[1\]
*319 ringosc\.dstage\[3\]\.id\.ts
*320 ringosc\.dstage\[4\]\.id\.d0
*321 ringosc\.dstage\[4\]\.id\.d1
*322 ringosc\.dstage\[4\]\.id\.d2
*323 ringosc\.dstage\[4\]\.id\.out
*324 ringosc\.dstage\[4\]\.id\.trim\[0\]
*325 ringosc\.dstage\[4\]\.id\.trim\[1\]
*326 ringosc\.dstage\[4\]\.id\.ts
*327 ringosc\.dstage\[5\]\.id\.d0
*328 ringosc\.dstage\[5\]\.id\.d1
*329 ringosc\.dstage\[5\]\.id\.d2
*330 ringosc\.dstage\[5\]\.id\.out
*331 ringosc\.dstage\[5\]\.id\.trim\[0\]
*332 ringosc\.dstage\[5\]\.id\.trim\[1\]
*333 ringosc\.dstage\[5\]\.id\.ts
*334 ringosc\.dstage\[6\]\.id\.d0
*335 ringosc\.dstage\[6\]\.id\.d1
*336 ringosc\.dstage\[6\]\.id\.d2
*337 ringosc\.dstage\[6\]\.id\.out
*338 ringosc\.dstage\[6\]\.id\.trim\[0\]
*339 ringosc\.dstage\[6\]\.id\.trim\[1\]
*340 ringosc\.dstage\[6\]\.id\.ts
*341 ringosc\.dstage\[7\]\.id\.d0
*342 ringosc\.dstage\[7\]\.id\.d1
*343 ringosc\.dstage\[7\]\.id\.d2
*344 ringosc\.dstage\[7\]\.id\.out
*345 ringosc\.dstage\[7\]\.id\.trim\[0\]
*346 ringosc\.dstage\[7\]\.id\.trim\[1\]
*347 ringosc\.dstage\[7\]\.id\.ts
*348 ringosc\.dstage\[8\]\.id\.d0
*349 ringosc\.dstage\[8\]\.id\.d1
*350 ringosc\.dstage\[8\]\.id\.d2
*351 ringosc\.dstage\[8\]\.id\.out
*352 ringosc\.dstage\[8\]\.id\.trim\[0\]
*353 ringosc\.dstage\[8\]\.id\.trim\[1\]
*354 ringosc\.dstage\[8\]\.id\.ts
*355 ringosc\.dstage\[9\]\.id\.d0
*356 ringosc\.dstage\[9\]\.id\.d1
*357 ringosc\.dstage\[9\]\.id\.d2
*358 ringosc\.dstage\[9\]\.id\.trim\[0\]
*359 ringosc\.dstage\[9\]\.id\.trim\[1\]
*360 ringosc\.dstage\[9\]\.id\.ts
*361 ringosc\.iss\.ctrl0
*362 ringosc\.iss\.d0
*363 ringosc\.iss\.d1
*364 ringosc\.iss\.d2
*365 ringosc\.iss\.one
*366 ringosc\.iss\.reset
*367 ringosc\.iss\.trim\[0\]
*368 ringosc\.iss\.trim\[1\]
*369 ANTENNA__228__A
*370 ANTENNA__232__A1
*371 ANTENNA__232__B2
*372 ANTENNA__247__A1
*373 ANTENNA__247__B1
*374 ANTENNA__248__B1
*375 ANTENNA__249__A
*376 ANTENNA__258__B1
*377 ANTENNA__259__B1
*378 ANTENNA__262__A1
*379 ANTENNA__279__A
*380 ANTENNA__339__A
*381 ANTENNA__341__A
*382 ANTENNA__342__A1
*383 ANTENNA__348__A_N
*384 ANTENNA__351__A2
*385 ANTENNA__352__A
*386 ANTENNA__353__A2
*387 ANTENNA__354__A2
*388 ANTENNA__357__A2
*389 ANTENNA__360__A2
*390 ANTENNA__362__A2
*391 ANTENNA__365__A2
*392 ANTENNA__366__A2
*393 ANTENNA__369__A2
*394 ANTENNA__370__A
*395 ANTENNA__372__A
*396 ANTENNA__375__B1
*397 ANTENNA__377__A2
*398 ANTENNA__379__A2
*399 ANTENNA__383__A2
*400 ANTENNA__384__B
*401 ANTENNA__386__B1
*402 ANTENNA__391__A2
*403 ANTENNA__397__B1
*404 ANTENNA__398__A2
*405 ANTENNA__399__A2
*406 ANTENNA__407__B1
*407 ANTENNA__409__A2
*408 ANTENNA__411__B1
*409 ANTENNA__412__A2
*410 ANTENNA__414__A2
*411 ANTENNA__415__A2
*412 ANTENNA__416__A
*413 ANTENNA__416__B
*414 ANTENNA__460__D
*415 FILLER_0_118
*416 FILLER_0_132
*417 FILLER_0_27
*418 FILLER_0_57
*419 FILLER_0_76
*420 FILLER_0_82
*421 FILLER_0_98
*422 FILLER_10_135
*423 FILLER_10_52
*424 FILLER_10_79
*425 FILLER_10_83
*426 FILLER_11_105
*427 FILLER_11_14
*428 FILLER_11_3
*429 FILLER_12_135
*430 FILLER_12_27
*431 FILLER_12_41
*432 FILLER_13_50
*433 FILLER_13_55
*434 FILLER_13_84
*435 FILLER_14_3
*436 FILLER_15_125
*437 FILLER_15_26
*438 FILLER_15_3
*439 FILLER_15_51
*440 FILLER_16_112
*441 FILLER_16_3
*442 FILLER_16_93
*443 FILLER_17_69
*444 FILLER_17_86
*445 FILLER_18_3
*446 FILLER_18_80
*447 FILLER_19_20
*448 FILLER_19_50
*449 FILLER_19_57
*450 FILLER_19_79
*451 FILLER_1_134
*452 FILLER_1_57
*453 FILLER_1_79
*454 FILLER_20_106
*455 FILLER_20_135
*456 FILLER_20_29
*457 FILLER_20_3
*458 FILLER_21_135
*459 FILLER_21_17
*460 FILLER_21_3
*461 FILLER_21_75
*462 FILLER_22_29
*463 FILLER_22_42
*464 FILLER_22_50
*465 FILLER_22_61
*466 FILLER_22_98
*467 FILLER_2_132
*468 FILLER_3_110
*469 FILLER_3_118
*470 FILLER_3_3
*471 FILLER_3_55
*472 FILLER_4_101
*473 FILLER_4_133
*474 FILLER_4_29
*475 FILLER_4_3
*476 FILLER_4_62
*477 FILLER_4_78
*478 FILLER_4_94
*479 FILLER_5_105
*480 FILLER_5_134
*481 FILLER_5_3
*482 FILLER_5_48
*483 FILLER_5_78
*484 FILLER_5_91
*485 FILLER_6_112
*486 FILLER_6_122
*487 FILLER_6_67
*488 FILLER_6_82
*489 FILLER_6_85
*490 FILLER_7_109
*491 FILLER_7_122
*492 FILLER_7_57
*493 FILLER_7_64
*494 FILLER_7_88
*495 FILLER_8_38
*496 FILLER_8_77
*497 FILLER_9_3
*498 FILLER_9_55
*499 FILLER_9_57
*500 FILLER_9_84
*501 PHY_0
*502 PHY_1
*503 PHY_10
*504 PHY_11
*505 PHY_12
*506 PHY_13
*507 PHY_14
*508 PHY_15
*509 PHY_16
*510 PHY_17
*511 PHY_18
*512 PHY_19
*513 PHY_2
*514 PHY_20
*515 PHY_21
*516 PHY_22
*517 PHY_23
*518 PHY_24
*519 PHY_25
*520 PHY_26
*521 PHY_27
*522 PHY_28
*523 PHY_29
*524 PHY_3
*525 PHY_30
*526 PHY_31
*527 PHY_32
*528 PHY_33
*529 PHY_34
*530 PHY_35
*531 PHY_36
*532 PHY_37
*533 PHY_38
*534 PHY_39
*535 PHY_4
*536 PHY_40
*537 PHY_41
*538 PHY_42
*539 PHY_43
*540 PHY_44
*541 PHY_45
*542 PHY_5
*543 PHY_6
*544 PHY_7
*545 PHY_8
*546 PHY_9
*547 TAP_46
*548 TAP_47
*549 TAP_48
*550 TAP_49
*551 TAP_50
*552 TAP_51
*553 TAP_52
*554 TAP_53
*555 TAP_54
*556 TAP_55
*557 TAP_56
*558 TAP_57
*559 TAP_58
*560 TAP_59
*561 TAP_60
*562 TAP_61
*563 TAP_62
*564 TAP_63
*565 TAP_64
*566 TAP_65
*567 TAP_66
*568 TAP_67
*569 TAP_68
*570 TAP_69
*571 TAP_70
*572 TAP_71
*573 TAP_72
*574 TAP_73
*575 TAP_74
*576 TAP_75
*577 TAP_76
*578 TAP_77
*579 TAP_78
*580 TAP_79
*581 TAP_80
*582 TAP_81
*583 TAP_82
*584 TAP_83
*585 TAP_84
*586 TAP_85
*587 TAP_86
*588 TAP_87
*589 TAP_88
*590 TAP_89
*591 TAP_90
*592 TAP_91
*593 TAP_92
*594 TAP_93
*595 TAP_94
*596 TAP_95
*597 _209_
*598 _210_
*599 _211_
*600 _212_
*601 _213_
*602 _214_
*603 _215_
*604 _216_
*605 _217_
*606 _218_
*607 _219_
*608 _220_
*609 _221_
*610 _222_
*611 _223_
*612 _224_
*613 _225_
*614 _226_
*615 _227_
*616 _228_
*617 _229_
*618 _230_
*619 _231_
*620 _232_
*621 _233_
*622 _234_
*623 _235_
*624 _236_
*625 _237_
*626 _238_
*627 _239_
*628 _240_
*629 _241_
*630 _242_
*631 _243_
*632 _244_
*633 _245_
*634 _246_
*635 _247_
*636 _248_
*637 _249_
*638 _250_
*639 _251_
*640 _252_
*641 _253_
*642 _254_
*643 _255_
*644 _256_
*645 _257_
*646 _258_
*647 _259_
*648 _260_
*649 _261_
*650 _262_
*651 _263_
*652 _264_
*653 _265_
*654 _266_
*655 _267_
*656 _268_
*657 _269_
*658 _270_
*659 _271_
*660 _272_
*661 _273_
*662 _274_
*663 _275_
*664 _276_
*665 _277_
*666 _278_
*667 _279_
*668 _280_
*669 _281_
*670 _282_
*671 _283_
*672 _284_
*673 _285_
*674 _286_
*675 _287_
*676 _288_
*677 _289_
*678 _290_
*679 _291_
*680 _292_
*681 _293_
*682 _294_
*683 _295_
*684 _296_
*685 _297_
*686 _298_
*687 _299_
*688 _300_
*689 _301_
*690 _302_
*691 _303_
*692 _304_
*693 _305_
*694 _306_
*695 _307_
*696 _308_
*697 _309_
*698 _310_
*699 _311_
*700 _312_
*701 _313_
*702 _314_
*703 _315_
*704 _316_
*705 _317_
*706 _318_
*707 _319_
*708 _320_
*709 _321_
*710 _322_
*711 _323_
*712 _324_
*713 _325_
*714 _326_
*715 _327_
*716 _328_
*717 _329_
*718 _330_
*719 _331_
*720 _332_
*721 _333_
*722 _334_
*723 _335_
*724 _336_
*725 _337_
*726 _338_
*727 _339_
*728 _340_
*729 _341_
*730 _342_
*731 _343_
*732 _344_
*733 _345_
*734 _346_
*735 _347_
*736 _348_
*737 _349_
*738 _350_
*739 _351_
*740 _352_
*741 _353_
*742 _354_
*743 _355_
*744 _356_
*745 _357_
*746 _358_
*747 _359_
*748 _360_
*749 _361_
*750 _362_
*751 _363_
*752 _364_
*753 _365_
*754 _366_
*755 _367_
*756 _368_
*757 _369_
*758 _370_
*759 _371_
*760 _372_
*761 _373_
*762 _374_
*763 _375_
*764 _376_
*765 _377_
*766 _378_
*767 _379_
*768 _380_
*769 _381_
*770 _382_
*771 _383_
*772 _384_
*773 _385_
*774 _386_
*775 _387_
*776 _388_
*777 _389_
*778 _390_
*779 _391_
*780 _392_
*781 _393_
*782 _394_
*783 _395_
*784 _396_
*785 _397_
*786 _398_
*787 _399_
*788 _400_
*789 _401_
*790 _402_
*791 _403_
*792 _404_
*793 _405_
*794 _406_
*795 _407_
*796 _408_
*797 _409_
*798 _410_
*799 _411_
*800 _412_
*801 _413_
*802 _414_
*803 _415_
*804 _416_
*805 _417_
*806 _418_
*807 _419_
*808 _420_
*809 _421_
*810 _422_
*811 _423_
*812 _424_
*813 _425_
*814 _426_
*815 _427_
*816 _428_
*817 _429_
*818 _430_
*819 _431_
*820 _432_
*821 _433_
*822 _434_
*823 _435_
*824 _436_
*825 _437_
*826 _438_
*827 _439_
*828 _440_
*829 _441_
*830 _442_
*831 _443_
*832 _444_
*833 _445_
*834 _446_
*835 _447_
*836 _448_
*837 _449_
*838 _450_
*839 _451_
*840 _452_
*841 _453_
*842 _454_
*843 _455_
*844 _456_
*845 _457_
*846 _458_
*847 _459_
*848 _460_
*849 _461_
*850 _462_
*851 _463_
*852 _464_
*853 _465_
*854 _466_
*855 _467_
*856 clockp_buffer_0
*857 clockp_buffer_1
*858 ringosc\.dstage\[0\]\.id\.delaybuf0
*859 ringosc\.dstage\[0\]\.id\.delaybuf1
*860 ringosc\.dstage\[0\]\.id\.delayen0
*861 ringosc\.dstage\[0\]\.id\.delayen1
*862 ringosc\.dstage\[0\]\.id\.delayenb0
*863 ringosc\.dstage\[0\]\.id\.delayenb1
*864 ringosc\.dstage\[0\]\.id\.delayint0
*865 ringosc\.dstage\[10\]\.id\.delaybuf0
*866 ringosc\.dstage\[10\]\.id\.delaybuf1
*867 ringosc\.dstage\[10\]\.id\.delayen0
*868 ringosc\.dstage\[10\]\.id\.delayen1
*869 ringosc\.dstage\[10\]\.id\.delayenb0
*870 ringosc\.dstage\[10\]\.id\.delayenb1
*871 ringosc\.dstage\[10\]\.id\.delayint0
*872 ringosc\.dstage\[11\]\.id\.delaybuf0
*873 ringosc\.dstage\[11\]\.id\.delaybuf1
*874 ringosc\.dstage\[11\]\.id\.delayen0
*875 ringosc\.dstage\[11\]\.id\.delayen1
*876 ringosc\.dstage\[11\]\.id\.delayenb0
*877 ringosc\.dstage\[11\]\.id\.delayenb1
*878 ringosc\.dstage\[11\]\.id\.delayint0
*879 ringosc\.dstage\[1\]\.id\.delaybuf0
*880 ringosc\.dstage\[1\]\.id\.delaybuf1
*881 ringosc\.dstage\[1\]\.id\.delayen0
*882 ringosc\.dstage\[1\]\.id\.delayen1
*883 ringosc\.dstage\[1\]\.id\.delayenb0
*884 ringosc\.dstage\[1\]\.id\.delayenb1
*885 ringosc\.dstage\[1\]\.id\.delayint0
*886 ringosc\.dstage\[2\]\.id\.delaybuf0
*887 ringosc\.dstage\[2\]\.id\.delaybuf1
*888 ringosc\.dstage\[2\]\.id\.delayen0
*889 ringosc\.dstage\[2\]\.id\.delayen1
*890 ringosc\.dstage\[2\]\.id\.delayenb0
*891 ringosc\.dstage\[2\]\.id\.delayenb1
*892 ringosc\.dstage\[2\]\.id\.delayint0
*893 ringosc\.dstage\[3\]\.id\.delaybuf0
*894 ringosc\.dstage\[3\]\.id\.delaybuf1
*895 ringosc\.dstage\[3\]\.id\.delayen0
*896 ringosc\.dstage\[3\]\.id\.delayen1
*897 ringosc\.dstage\[3\]\.id\.delayenb0
*898 ringosc\.dstage\[3\]\.id\.delayenb1
*899 ringosc\.dstage\[3\]\.id\.delayint0
*900 ringosc\.dstage\[4\]\.id\.delaybuf0
*901 ringosc\.dstage\[4\]\.id\.delaybuf1
*902 ringosc\.dstage\[4\]\.id\.delayen0
*903 ringosc\.dstage\[4\]\.id\.delayen1
*904 ringosc\.dstage\[4\]\.id\.delayenb0
*905 ringosc\.dstage\[4\]\.id\.delayenb1
*906 ringosc\.dstage\[4\]\.id\.delayint0
*907 ringosc\.dstage\[5\]\.id\.delaybuf0
*908 ringosc\.dstage\[5\]\.id\.delaybuf1
*909 ringosc\.dstage\[5\]\.id\.delayen0
*910 ringosc\.dstage\[5\]\.id\.delayen1
*911 ringosc\.dstage\[5\]\.id\.delayenb0
*912 ringosc\.dstage\[5\]\.id\.delayenb1
*913 ringosc\.dstage\[5\]\.id\.delayint0
*914 ringosc\.dstage\[6\]\.id\.delaybuf0
*915 ringosc\.dstage\[6\]\.id\.delaybuf1
*916 ringosc\.dstage\[6\]\.id\.delayen0
*917 ringosc\.dstage\[6\]\.id\.delayen1
*918 ringosc\.dstage\[6\]\.id\.delayenb0
*919 ringosc\.dstage\[6\]\.id\.delayenb1
*920 ringosc\.dstage\[6\]\.id\.delayint0
*921 ringosc\.dstage\[7\]\.id\.delaybuf0
*922 ringosc\.dstage\[7\]\.id\.delaybuf1
*923 ringosc\.dstage\[7\]\.id\.delayen0
*924 ringosc\.dstage\[7\]\.id\.delayen1
*925 ringosc\.dstage\[7\]\.id\.delayenb0
*926 ringosc\.dstage\[7\]\.id\.delayenb1
*927 ringosc\.dstage\[7\]\.id\.delayint0
*928 ringosc\.dstage\[8\]\.id\.delaybuf0
*929 ringosc\.dstage\[8\]\.id\.delaybuf1
*930 ringosc\.dstage\[8\]\.id\.delayen0
*931 ringosc\.dstage\[8\]\.id\.delayen1
*932 ringosc\.dstage\[8\]\.id\.delayenb0
*933 ringosc\.dstage\[8\]\.id\.delayenb1
*934 ringosc\.dstage\[8\]\.id\.delayint0
*935 ringosc\.dstage\[9\]\.id\.delaybuf0
*936 ringosc\.dstage\[9\]\.id\.delaybuf1
*937 ringosc\.dstage\[9\]\.id\.delayen0
*938 ringosc\.dstage\[9\]\.id\.delayen1
*939 ringosc\.dstage\[9\]\.id\.delayenb0
*940 ringosc\.dstage\[9\]\.id\.delayenb1
*941 ringosc\.dstage\[9\]\.id\.delayint0
*942 ringosc\.ibufp00
*943 ringosc\.ibufp01
*944 ringosc\.ibufp10
*945 ringosc\.ibufp11
*946 ringosc\.iss\.const1
*947 ringosc\.iss\.ctrlen0
*948 ringosc\.iss\.delaybuf0
*949 ringosc\.iss\.delayen0
*950 ringosc\.iss\.delayen1
*951 ringosc\.iss\.delayenb0
*952 ringosc\.iss\.delayenb1
*953 ringosc\.iss\.delayint0
*954 ringosc\.iss\.reseten0

*PORTS
clockp[0] O
clockp[1] O
dco I
div[0] I
div[1] I
div[2] I
div[3] I
div[4] I
enable I
ext_trim[0] I
ext_trim[10] I
ext_trim[11] I
ext_trim[12] I
ext_trim[13] I
ext_trim[14] I
ext_trim[15] I
ext_trim[16] I
ext_trim[17] I
ext_trim[18] I
ext_trim[19] I
ext_trim[1] I
ext_trim[20] I
ext_trim[21] I
ext_trim[22] I
ext_trim[23] I
ext_trim[24] I
ext_trim[25] I
ext_trim[2] I
ext_trim[3] I
ext_trim[4] I
ext_trim[5] I
ext_trim[6] I
ext_trim[7] I
ext_trim[8] I
ext_trim[9] I
osc I
resetb I

*D_NET *3 0.00325734
*CONN
*P clockp[0] O
*I *856:X O *D sky130_fd_sc_hd__clkbuf_16
*CAP
1 clockp[0] 0.000995893
2 *856:X 0.000330783
3 *3:7 0.00132668
4 clockp[0] clockp[1] 7.83014e-05
5 clockp[0] *369:DIODE 8.4047e-05
6 clockp[0] *605:A1 0
7 clockp[0] *39:5 0
8 clockp[0] *79:6 0
9 clockp[0] *102:8 4.41722e-05
10 clockp[0] *256:21 0
11 *3:7 *97:12 4.5051e-05
12 *3:7 *249:86 0.000352421
*RES
1 *856:X *3:7 42.9093 
2 *3:7 clockp[0] 19.5227 
*END

*D_NET *4 0.00137507
*CONN
*P clockp[1] O
*I *857:X O *D sky130_fd_sc_hd__clkbuf_16
*CAP
1 clockp[1] 0.000648385
2 *857:X 0.000648385
3 clockp[1] *605:A1 0
4 clockp[1] *6:10 0
5 clockp[1] *39:5 0
6 clockp[0] clockp[1] 7.83014e-05
*RES
1 *857:X clockp[1] 49.1571 
*END

*D_NET *5 0.013442
*CONN
*P dco I
*I *383:DIODE I *D sky130_fd_sc_hd__diode_2
*I *381:DIODE I *D sky130_fd_sc_hd__diode_2
*I *400:DIODE I *D sky130_fd_sc_hd__diode_2
*I *772:B I *D sky130_fd_sc_hd__nor2_2
*I *729:A I *D sky130_fd_sc_hd__nor2_2
*I *380:DIODE I *D sky130_fd_sc_hd__diode_2
*I *736:A_N I *D sky130_fd_sc_hd__and2b_2
*I *727:A I *D sky130_fd_sc_hd__buf_2
*I *758:A I *D sky130_fd_sc_hd__buf_2
*I *394:DIODE I *D sky130_fd_sc_hd__diode_2
*I *740:A I *D sky130_fd_sc_hd__buf_2
*I *385:DIODE I *D sky130_fd_sc_hd__diode_2
*CAP
1 dco 0.000616949
2 *383:DIODE 0.000160641
3 *381:DIODE 0
4 *400:DIODE 0.000136877
5 *772:B 6.56929e-05
6 *729:A 0
7 *380:DIODE 7.09533e-05
8 *736:A_N 0
9 *727:A 5.59483e-05
10 *758:A 0
11 *394:DIODE 0
12 *740:A 5.13385e-05
13 *385:DIODE 0.000125971
14 *5:91 0.00072075
15 *5:77 0.00105124
16 *5:64 0.000768734
17 *5:61 0.000271358
18 *5:53 0.000214029
19 *5:50 0.00035793
20 *5:39 5.59483e-05
21 *5:37 0.00103869
22 *5:28 0.00132433
23 *5:17 0.000656809
24 *5:5 0.00097286
25 *380:DIODE *140:10 3.47745e-05
26 *380:DIODE *193:9 0
27 *380:DIODE *267:25 0
28 *383:DIODE *700:A 5.55278e-05
29 *383:DIODE *174:18 8.24779e-05
30 *383:DIODE *197:24 4.06512e-05
31 *383:DIODE *201:6 0.000156016
32 *385:DIODE *62:8 1.02387e-05
33 *385:DIODE *125:10 8.85189e-05
34 *385:DIODE *130:11 0
35 *385:DIODE *259:29 0
36 *400:DIODE *610:A 2.43944e-05
37 *400:DIODE *772:A 5.3304e-05
38 *727:A *214:16 5.76359e-05
39 *727:A *279:27 0.000189857
40 *740:A *12:8 0
41 *772:B *27:12 6.77187e-05
42 *772:B *92:25 2.26406e-05
43 *772:B *92:57 4.50781e-05
44 *5:5 *11:8 0
45 *5:5 *12:8 0
46 *5:17 *11:8 0
47 *5:17 *12:8 0
48 *5:28 *891:A 1.24362e-05
49 *5:28 *12:8 0
50 *5:28 *204:42 0
51 *5:28 *278:5 1.71981e-05
52 *5:28 *311:33 1.84917e-05
53 *5:37 *700:A 4.20525e-05
54 *5:37 *858:A 2.95423e-05
55 *5:37 *862:A 2.10502e-05
56 *5:37 *862:TE_B 6.49703e-05
57 *5:37 *278:5 1.8863e-05
58 *5:37 *279:27 6.55954e-05
59 *5:37 *280:8 0.000237027
60 *5:37 *283:5 3.2277e-05
61 *5:37 *311:33 2.10502e-05
62 *5:50 *700:A 7.78661e-05
63 *5:50 *197:24 1.07617e-05
64 *5:53 *696:A 0.000224605
65 *5:53 *197:24 0.000141355
66 *5:53 *311:25 1.56762e-05
67 *5:61 *762:B 0
68 *5:61 *197:19 2.64616e-05
69 *5:61 *197:24 0.000117253
70 *5:61 *311:25 0.000267167
71 *5:64 *140:10 4.20525e-05
72 *5:64 *159:21 4.8836e-05
73 *5:64 *214:16 0.000105415
74 *5:77 *158:7 0.000138859
75 *5:77 *159:11 8.87351e-05
76 *5:77 *193:12 4.41821e-06
77 *5:77 *193:65 3.76343e-05
78 *5:77 *279:27 0.00024992
79 *5:91 *91:9 0.000143675
80 *5:91 *91:17 0.000153585
81 *5:91 *92:30 0.000812222
82 *5:91 *142:11 1.00937e-05
83 *5:91 *159:11 6.50901e-05
84 *5:91 *193:9 2.28839e-05
85 *5:91 *193:65 3.6678e-05
86 *5:91 *193:86 5.06722e-05
87 *5:91 *197:11 0.000188627
88 *5:91 *197:19 0.000135057
*RES
1 dco *5:5 1.78827 
2 *5:5 *385:DIODE 48.4339 
3 *5:5 *5:17 8.74293 
4 *5:17 *740:A 38.6732 
5 *5:17 *5:28 20.2096 
6 *5:28 *394:DIODE 23 
7 *5:28 *5:37 29.21 
8 *5:37 *5:39 15 
9 *5:39 *758:A 23 
10 *5:39 *727:A 25.0507 
11 *5:37 *5:50 2.25786 
12 *5:50 *5:53 18.0036 
13 *5:53 *736:A_N 23 
14 *5:53 *5:61 3.50071 
15 *5:61 *5:64 18.6664 
16 *5:64 *380:DIODE 39.2014 
17 *5:64 *5:77 38.0164 
18 *5:77 *729:A 38 
19 *5:77 *5:91 19.6777 
20 *5:91 *772:B 39.0254 
21 *5:91 *400:DIODE 39.5743 
22 *5:61 *381:DIODE 23 
23 *5:50 *383:DIODE 42.0186 
*END

*D_NET *6 0.0102513
*CONN
*P div[0] I
*I *620:B2 I *D sky130_fd_sc_hd__o22a_2
*I *379:DIODE I *D sky130_fd_sc_hd__diode_2
*I *371:DIODE I *D sky130_fd_sc_hd__diode_2
*I *667:A I *D sky130_fd_sc_hd__and2_2
*CAP
1 div[0] 0.000386162
2 *620:B2 0
3 *379:DIODE 0
4 *371:DIODE 6.55936e-05
5 *667:A 0
6 *6:47 0.00167999
7 *6:25 0.00293732
8 *6:19 0.00134589
9 *6:10 0.000540329
10 *371:DIODE *626:B 7.57281e-06
11 *371:DIODE *103:5 2.93431e-05
12 *6:10 *7:8 0
13 *6:10 *97:12 7.76035e-05
14 *6:10 *101:8 7.4878e-05
15 *6:10 *102:8 0
16 *6:10 *275:6 0.000164257
17 *6:19 *667:B 0.000317553
18 *6:19 *100:11 2.47094e-05
19 *6:19 *148:8 0.000272377
20 *6:25 *638:A2 0.00018355
21 *6:25 *647:A1 2.80168e-05
22 *6:25 *666:A 7.37837e-05
23 *6:25 *8:31 0.000253008
24 *6:25 *9:46 3.64248e-05
25 *6:25 *102:8 0.0002385
26 *6:25 *116:14 3.25251e-05
27 *6:25 *118:25 0
28 *6:25 *150:25 0.00013271
29 *6:47 *836:RESET_B 9.01809e-05
30 *6:47 *78:7 2.13054e-05
31 *6:47 *84:18 7.27206e-05
32 *6:47 *113:12 0.000200236
33 *6:47 *150:25 0.000309563
34 *6:47 *183:6 0.000291537
35 *6:47 *186:16 0
36 *6:47 *188:6 9.35082e-05
37 *6:47 *189:8 0.000270173
38 *6:47 *251:30 0
39 clockp[1] *6:10 0
*RES
1 div[0] *6:10 28.1242 
2 *6:10 *667:A 23 
3 *6:10 *6:19 5.42714 
4 *6:19 *6:25 32.309 
5 *6:25 *371:DIODE 46.9425 
6 *6:25 *6:47 42.0387 
7 *6:47 *379:DIODE 23 
8 *6:19 *620:B2 23 
*END

*D_NET *7 0.00780463
*CONN
*P div[1] I
*I *620:A1 I *D sky130_fd_sc_hd__o22a_2
*I *370:DIODE I *D sky130_fd_sc_hd__diode_2
*I *616:A I *D sky130_fd_sc_hd__nand2_2
*I *369:DIODE I *D sky130_fd_sc_hd__diode_2
*CAP
1 div[1] 0.000797238
2 *620:A1 0
3 *370:DIODE 9.96206e-05
4 *616:A 2.0995e-05
5 *369:DIODE 0.000577138
6 *7:42 0.00105201
7 *7:22 0.00112011
8 *7:10 0.000848601
9 *7:8 0.000921978
10 *369:DIODE *852:D 7.05498e-05
11 *369:DIODE *97:20 3.70187e-05
12 *369:DIODE *102:7 2.57373e-05
13 *369:DIODE *102:8 5.62433e-05
14 *370:DIODE *709:C 7.73389e-05
15 *370:DIODE *89:57 0.000266265
16 *616:A *614:B 0
17 *7:8 *8:5 0
18 *7:8 *8:31 0
19 *7:8 *8:43 0
20 *7:8 *97:20 9.09456e-05
21 *7:8 *115:12 1.02387e-05
22 *7:8 *118:6 4.67998e-05
23 *7:10 *624:B 0
24 *7:10 *8:43 0
25 *7:10 *96:28 0
26 *7:10 *97:20 0.000181934
27 *7:22 *97:5 0.000272383
28 *7:22 *249:79 3.53115e-05
29 *7:42 *614:B 6.69899e-05
30 *7:42 *715:B1 9.5877e-05
31 *7:42 *67:8 0
32 *7:42 *84:27 0.00021777
33 *7:42 *89:57 0.000107312
34 *7:42 *95:6 6.43108e-05
35 *7:42 *113:6 0.000139766
36 *7:42 *249:79 0.000148569
37 *7:42 *252:39 0.000221992
38 *7:42 *257:20 4.95442e-05
39 clockp[0] *369:DIODE 8.4047e-05
40 *6:10 *7:8 0
*RES
1 div[1] *7:8 11.3375 
2 *7:8 *7:10 2.61 
3 *7:10 *369:DIODE 46.5964 
4 *7:10 *7:22 18.9564 
5 *7:22 *616:A 23.4971 
6 *7:22 *7:42 49.9686 
7 *7:42 *370:DIODE 26.0036 
8 *7:8 *620:A1 38 
*END

*D_NET *8 0.00492367
*CONN
*P div[2] I
*I *375:DIODE I *D sky130_fd_sc_hd__diode_2
*I *637:A I *D sky130_fd_sc_hd__nor2_2
*I *635:B1 I *D sky130_fd_sc_hd__a32o_2
*I *373:DIODE I *D sky130_fd_sc_hd__diode_2
*CAP
1 div[2] 0.000240611
2 *375:DIODE 0
3 *637:A 3.10445e-05
4 *635:B1 0.000307617
5 *373:DIODE 0
6 *8:43 0.000385696
7 *8:31 0.00111071
8 *8:8 0.00031782
9 *8:5 0.00100688
10 *635:B1 *635:A1 0.000133465
11 *635:B1 *635:B2 0.000113264
12 *635:B1 *648:A 3.91654e-05
13 *635:B1 *128:8 6.50747e-05
14 *635:B1 *129:7 3.91445e-05
15 *635:B1 *275:6 0.000131194
16 *637:A *620:A2 6.26126e-05
17 *637:A *96:7 1.37232e-05
18 *637:A *148:8 1.94812e-05
19 *8:5 *9:5 0
20 *8:8 *128:8 1.05658e-05
21 *8:8 *275:6 2.33476e-05
22 *8:31 *635:B2 1.05658e-05
23 *8:31 *39:5 7.66808e-05
24 *8:31 *115:12 7.57992e-05
25 *8:31 *150:10 2.31209e-05
26 *8:43 *624:B 0
27 *8:43 *39:5 7.73918e-05
28 *8:43 *115:12 0.000260167
29 *8:43 *148:8 8.40718e-05
30 *8:43 *149:6 1.14452e-05
31 *6:25 *8:31 0.000253008
32 *7:8 *8:5 0
33 *7:8 *8:31 0
34 *7:8 *8:43 0
35 *7:10 *8:43 0
*RES
1 div[2] *8:5 0.843733 
2 *8:5 *8:8 8.32107 
3 *8:8 *373:DIODE 38 
4 *8:8 *635:B1 45.2189 
5 *8:5 *8:31 12.379 
6 *8:31 *8:43 36.9807 
7 *8:43 *637:A 39.1186 
8 *8:31 *375:DIODE 38 
*END

*D_NET *9 0.00864668
*CONN
*P div[3] I
*I *374:DIODE I *D sky130_fd_sc_hd__diode_2
*I *377:DIODE I *D sky130_fd_sc_hd__diode_2
*I *636:B1 I *D sky130_fd_sc_hd__a21oi_2
*I *635:A1 I *D sky130_fd_sc_hd__a32o_2
*I *647:B1 I *D sky130_fd_sc_hd__a21o_2
*I *372:DIODE I *D sky130_fd_sc_hd__diode_2
*CAP
1 div[3] 0.000515703
2 *374:DIODE 0
3 *377:DIODE 0
4 *636:B1 1.35081e-05
5 *635:A1 0.000183362
6 *647:B1 9.92561e-05
7 *372:DIODE 7.3094e-05
8 *9:58 0.000620572
9 *9:46 0.00155084
10 *9:12 0.000308031
11 *9:8 0.000466817
12 *9:7 0.000161282
13 *9:5 0.00144597
14 *372:DIODE *666:A 0.00010018
15 *372:DIODE *666:C 2.93747e-05
16 *372:DIODE *118:11 2.18506e-05
17 *372:DIODE *128:8 0.000182826
18 *635:A1 *635:B2 2.08781e-05
19 *636:B1 *124:8 9.86551e-06
20 *647:B1 *666:A 4.17736e-05
21 *647:B1 *668:B 1.24376e-05
22 *647:B1 *118:11 9.16362e-05
23 *647:B1 *128:8 0.000139352
24 *647:B1 *147:8 3.59538e-05
25 *9:5 *10:8 0
26 *9:8 *636:A1 0
27 *9:8 *116:14 0.000114237
28 *9:8 *117:8 0.00022666
29 *9:8 *124:8 8.22421e-06
30 *9:12 *666:A 0.000217398
31 *9:12 *666:B 0.000141879
32 *9:12 *116:14 0.000127023
33 *9:12 *117:8 0.000166857
34 *9:12 *118:25 1.44813e-05
35 *9:46 *635:B2 4.04032e-05
36 *9:46 *39:5 3.22112e-05
37 *9:46 *103:18 0.00017587
38 *9:46 *127:8 0
39 *9:58 *623:B 2.02872e-05
40 *9:58 *634:A 0.000448129
41 *9:58 *635:B2 2.51604e-05
42 *9:58 *709:B 0
43 *9:58 *39:5 0.000109855
44 *9:58 *104:14 0.0002246
45 *9:58 *104:24 9.41704e-05
46 *9:58 *107:8 3.13446e-05
47 *9:58 *150:10 3.7122e-06
48 *9:58 *252:31 0
49 *9:58 *257:15 2.02872e-05
50 *9:58 *257:20 0.000109443
51 *635:B1 *635:A1 0.000133465
52 *6:25 *9:46 3.64248e-05
53 *8:5 *9:5 0
*RES
1 div[3] *9:5 1.35893 
2 *9:5 *9:7 8 
3 *9:7 *9:8 3.49036 
4 *9:8 *9:12 19.7229 
5 *9:12 *372:DIODE 25.5271 
6 *9:12 *647:B1 26.0243 
7 *9:8 *635:A1 40.5271 
8 *9:7 *636:B1 38.3211 
9 *9:5 *9:46 13.5417 
10 *9:46 *9:58 43.1743 
11 *9:58 *377:DIODE 38 
12 *9:46 *374:DIODE 38 
*END

*D_NET *10 0.00333855
*CONN
*P div[4] I
*I *376:DIODE I *D sky130_fd_sc_hd__diode_2
*I *646:B1 I *D sky130_fd_sc_hd__o21a_2
*I *650:A1 I *D sky130_fd_sc_hd__o211a_2
*I *378:DIODE I *D sky130_fd_sc_hd__diode_2
*CAP
1 div[4] 0.000330761
2 *376:DIODE 0.000124848
3 *646:B1 0
4 *650:A1 0
5 *378:DIODE 0.000153914
6 *10:36 0.000318772
7 *10:28 6.91262e-05
8 *10:22 0.000480333
9 *10:8 0.000701957
10 *376:DIODE *412:DIODE 7.06229e-05
11 *376:DIODE *127:8 2.93845e-05
12 *378:DIODE *645:A 6.70363e-05
13 *378:DIODE *122:21 0
14 *378:DIODE *124:8 0
15 *378:DIODE *124:24 0
16 *378:DIODE *130:11 9.26005e-05
17 *378:DIODE *275:6 0.000111955
18 *10:8 *645:A 8.77939e-05
19 *10:8 *11:8 0
20 *10:8 *130:11 9.7017e-05
21 *10:22 *645:B 9.8971e-06
22 *10:22 *126:5 0.000267167
23 *10:22 *130:11 1.41077e-05
24 *10:28 *650:A2 1.37039e-05
25 *10:28 *126:5 1.28818e-05
26 *10:36 *412:DIODE 5.67058e-05
27 *10:36 *650:A2 0
28 *10:36 *126:5 0.000213869
29 *10:36 *131:8 1.40958e-05
30 *9:5 *10:8 0
*RES
1 div[4] *10:8 10.3071 
2 *10:8 *378:DIODE 41.3764 
3 *10:8 *10:22 18.9564 
4 *10:22 *10:28 30.9995 
5 *10:28 *650:A1 23 
6 *10:22 *10:36 4.32929 
7 *10:36 *646:B1 23 
8 *10:36 *376:DIODE 26.0036 
*END

*D_NET *11 0.00296241
*CONN
*P enable I
*I *804:A I *D sky130_fd_sc_hd__nand2_2
*I *412:DIODE I *D sky130_fd_sc_hd__diode_2
*CAP
1 enable 0.000852107
2 *804:A 2.79004e-05
3 *412:DIODE 0.000239192
4 *11:8 0.0011192
5 *412:DIODE *804:B 0
6 *412:DIODE *39:5 0
7 *412:DIODE *125:10 8.76088e-05
8 *412:DIODE *244:8 3.31127e-05
9 *804:A *254:27 5.50106e-05
10 *11:8 *62:8 0.000133179
11 *11:8 *82:8 0.000114083
12 *11:8 *125:10 5.01654e-05
13 *11:8 *244:8 4.59337e-05
14 *11:8 *249:236 7.7588e-05
15 *376:DIODE *412:DIODE 7.06229e-05
16 *5:5 *11:8 0
17 *5:17 *11:8 0
18 *10:8 *11:8 0
19 *10:36 *412:DIODE 5.67058e-05
*RES
1 enable *11:8 13.9742 
2 *11:8 *412:DIODE 42.785 
3 *11:8 *804:A 38.6214 
*END

*D_NET *12 0.00502803
*CONN
*P ext_trim[0] I
*I *730:A1 I *D sky130_fd_sc_hd__a21o_2
*I *382:DIODE I *D sky130_fd_sc_hd__diode_2
*CAP
1 ext_trim[0] 0.00152263
2 *730:A1 0.00024368