*SPEF "ieee 1481-1999"
*DESIGN "digital_pll"
*DATE "11:11:11 Fri 11 11, 1111"
*VENDOR "OpenRCX"
*PROGRAM "Parallel Extraction"
*VERSION "1.0"
*DESIGN_FLOW "NAME_SCOPE LOCAL" "PIN_CAP NONE"
*DIVIDER /
*DELIMITER :
*BUS_DELIMITER []
*T_UNIT 1 NS
*C_UNIT 1 PF
*R_UNIT 1 OHM
*L_UNIT 1 HENRY

*NAME_MAP
*3 clockp[0]
*4 clockp[1]
*5 dco
*6 div[0]
*7 div[1]
*8 div[2]
*9 div[3]
*10 div[4]
*11 enable
*12 ext_trim[0]
*13 ext_trim[10]
*14 ext_trim[11]
*15 ext_trim[12]
*16 ext_trim[13]
*17 ext_trim[14]
*18 ext_trim[15]
*19 ext_trim[16]
*20 ext_trim[17]
*21 ext_trim[18]
*22 ext_trim[19]
*23 ext_trim[1]
*24 ext_trim[20]
*25 ext_trim[21]
*26 ext_trim[22]
*27 ext_trim[23]
*28 ext_trim[24]
*29 ext_trim[25]
*30 ext_trim[2]
*31 ext_trim[3]
*32 ext_trim[4]
*33 ext_trim[5]
*34 ext_trim[6]
*35 ext_trim[7]
*36 ext_trim[8]
*37 ext_trim[9]
*38 osc
*39 resetb
*40 _000_
*41 _001_
*42 _002_
*43 _003_
*44 _004_
*45 _005_
*46 _006_
*47 _007_
*48 _008_
*49 _009_
*50 _010_
*51 _011_
*52 _012_
*53 _013_
*54 _014_
*55 _015_
*56 _016_
*57 _017_
*58 _018_
*59 _019_
*60 _020_
*61 _021_
*62 _022_
*63 _023_
*64 _024_
*65 _025_
*66 _026_
*67 _027_
*68 _028_
*69 _029_
*70 _030_
*71 _031_
*72 _032_
*73 _033_
*74 _034_
*75 _035_
*76 _036_
*77 _037_
*78 _038_
*79 _039_
*80 _040_
*81 _041_
*82 _042_
*83 _043_
*84 _044_
*85 _045_
*86 _046_
*87 _047_
*88 _048_
*89 _049_
*90 _050_
*91 _051_
*92 _052_
*93 _053_
*94 _054_
*95 _055_
*96 _056_
*97 _057_
*98 _058_
*99 _059_
*100 _060_
*101 _061_
*102 _062_
*103 _063_
*104 _064_
*105 _065_
*106 _066_
*107 _067_
*108 _068_
*109 _069_
*110 _070_
*111 _071_
*112 _072_
*113 _073_
*114 _074_
*115 _075_
*116 _076_
*117 _077_
*118 _078_
*119 _079_
*120 _080_
*121 _081_
*122 _082_
*123 _083_
*124 _084_
*125 _085_
*126 _086_
*127 _087_
*128 _088_
*129 _089_
*130 _090_
*131 _091_
*132 _092_
*133 _093_
*134 _094_
*135 _095_
*136 _096_
*137 _097_
*138 _098_
*139 _099_
*140 _100_
*141 _101_
*142 _102_
*143 _103_
*144 _104_
*145 _105_
*146 _106_
*147 _107_
*148 _108_
*149 _109_
*150 _110_
*151 _111_
*152 _112_
*153 _113_
*154 _114_
*155 _115_
*156 _116_
*157 _117_
*158 _118_
*159 _119_
*160 _120_
*161 _121_
*162 _122_
*163 _123_
*164 _124_
*165 _125_
*166 _126_
*167 _127_
*168 _128_
*169 _129_
*170 _130_
*171 _131_
*172 _132_
*173 _133_
*174 _134_
*175 _135_
*176 _136_
*177 _137_
*178 _138_
*179 _139_
*180 _140_
*181 _141_
*182 _142_
*183 _143_
*184 _144_
*185 _145_
*186 _146_
*187 _147_
*188 _148_
*189 _149_
*190 _150_
*191 _151_
*192 _152_
*193 _153_
*194 _154_
*195 _155_
*196 _156_
*197 _157_
*198 _158_
*199 _159_
*200 _160_
*201 _161_
*202 _162_
*203 _163_
*204 _164_
*205 _165_
*206 _166_
*207 _167_
*208 _168_
*209 _169_
*210 _170_
*211 _171_
*212 _172_
*213 _173_
*214 _174_
*215 _175_
*216 _176_
*217 _177_
*218 _178_
*219 _179_
*220 _180_
*221 _181_
*222 _182_
*223 _183_
*224 _184_
*225 _185_
*226 _186_
*227 _187_
*228 _188_
*229 _189_
*230 _190_
*231 _191_
*232 _192_
*233 _193_
*234 _194_
*235 _195_
*236 _196_
*237 _197_
*238 _198_
*239 _199_
*240 _200_
*241 _201_
*242 _202_
*243 _203_
*244 _204_
*245 _205_
*246 _206_
*247 _207_
*248 _208_
*249 _209_
*250 _210_
*251 _211_
*252 _212_
*253 _213_
*254 pll_control\.clock
*255 pll_control\.count0\[0\]
*256 pll_control\.count0\[1\]
*257 pll_control\.count0\[2\]
*258 pll_control\.count0\[3\]
*259 pll_control\.count0\[4\]
*260 pll_control\.count1\[0\]
*261 pll_control\.count1\[1\]
*262 pll_control\.count1\[2\]
*263 pll_control\.count1\[3\]
*264 pll_control\.count1\[4\]
*265 pll_control\.oscbuf\[0\]
*266 pll_control\.oscbuf\[1\]
*267 pll_control\.oscbuf\[2\]
*268 pll_control\.prep\[0\]
*269 pll_control\.prep\[1\]
*270 pll_control\.prep\[2\]
*271 pll_control\.tint\[0\]
*272 pll_control\.tint\[1\]
*273 pll_control\.tint\[2\]
*274 pll_control\.tint\[3\]
*275 pll_control\.tint\[4\]
*276 pll_control\.tval\[0\]
*277 pll_control\.tval\[1\]
*278 ringosc\.c\[0\]
*279 ringosc\.c\[1\]
*280 ringosc\.clockp\[1\]
*281 ringosc\.dstage\[0\]\.id\.d0
*282 ringosc\.dstage\[0\]\.id\.d1
*283 ringosc\.dstage\[0\]\.id\.d2
*284 ringosc\.dstage\[0\]\.id\.in
*285 ringosc\.dstage\[0\]\.id\.out
*286 ringosc\.dstage\[0\]\.id\.trim\[0\]
*287 ringosc\.dstage\[0\]\.id\.trim\[1\]
*288 ringosc\.dstage\[0\]\.id\.ts
*289 ringosc\.dstage\[10\]\.id\.d0
*290 ringosc\.dstage\[10\]\.id\.d1
*291 ringosc\.dstage\[10\]\.id\.d2
*292 ringosc\.dstage\[10\]\.id\.in
*293 ringosc\.dstage\[10\]\.id\.out
*294 ringosc\.dstage\[10\]\.id\.trim\[0\]
*295 ringosc\.dstage\[10\]\.id\.trim\[1\]
*296 ringosc\.dstage\[10\]\.id\.ts
*297 ringosc\.dstage\[11\]\.id\.d0
*298 ringosc\.dstage\[11\]\.id\.d1
*299 ringosc\.dstage\[11\]\.id\.d2
*300 ringosc\.dstage\[11\]\.id\.out
*301 ringosc\.dstage\[11\]\.id\.trim\[0\]
*302 ringosc\.dstage\[11\]\.id\.trim\[1\]
*303 ringosc\.dstage\[11\]\.id\.ts
*304 ringosc\.dstage\[1\]\.id\.d0
*305 ringosc\.dstage\[1\]\.id\.d1
*306 ringosc\.dstage\[1\]\.id\.d2
*307 ringosc\.dstage\[1\]\.id\.out
*308 ringosc\.dstage\[1\]\.id\.trim\[0\]
*309 ringosc\.dstage\[1\]\.id\.trim\[1\]
*310 ringosc\.dstage\[1\]\.id\.ts
*311 ringosc\.dstage\[2\]\.id\.d0
*312 ringosc\.dstage\[2\]\.id\.d1
*313 ringosc\.dstage\[2\]\.id\.d2
*314 ringosc\.dstage\[2\]\.id\.out
*315 ringosc\.dstage\[2\]\.id\.trim\[0\]
*316 ringosc\.dstage\[2\]\.id\.trim\[1\]
*317 ringosc\.dstage\[2\]\.id\.ts
*318 ringosc\.dstage\[3\]\.id\.d0
*319 ringosc\.dstage\[3\]\.id\.d1
*320 ringosc\.dstage\[3\]\.id\.d2
*321 ringosc\.dstage\[3\]\.id\.out
*322 ringosc\.dstage\[3\]\.id\.trim\[0\]
*323 ringosc\.dstage\[3\]\.id\.trim\[1\]
*324 ringosc\.dstage\[3\]\.id\.ts
*325 ringosc\.dstage\[4\]\.id\.d0
*326 ringosc\.dstage\[4\]\.id\.d1
*327 ringosc\.dstage\[4\]\.id\.d2
*328 ringosc\.dstage\[4\]\.id\.out
*329 ringosc\.dstage\[4\]\.id\.trim\[0\]
*330 ringosc\.dstage\[4\]\.id\.trim\[1\]
*331 ringosc\.dstage\[4\]\.id\.ts
*332 ringosc\.dstage\[5\]\.id\.d0
*333 ringosc\.dstage\[5\]\.id\.d1
*334 ringosc\.dstage\[5\]\.id\.d2
*335 ringosc\.dstage\[5\]\.id\.out
*336 ringosc\.dstage\[5\]\.id\.trim\[0\]
*337 ringosc\.dstage\[5\]\.id\.trim\[1\]
*338 ringosc\.dstage\[5\]\.id\.ts
*339 ringosc\.dstage\[6\]\.id\.d0
*340 ringosc\.dstage\[6\]\.id\.d1
*341 ringosc\.dstage\[6\]\.id\.d2
*342 ringosc\.dstage\[6\]\.id\.out
*343 ringosc\.dstage\[6\]\.id\.trim\[0\]
*344 ringosc\.dstage\[6\]\.id\.trim\[1\]
*345 ringosc\.dstage\[6\]\.id\.ts
*346 ringosc\.dstage\[7\]\.id\.d0
*347 ringosc\.dstage\[7\]\.id\.d1
*348 ringosc\.dstage\[7\]\.id\.d2
*349 ringosc\.dstage\[7\]\.id\.out
*350 ringosc\.dstage\[7\]\.id\.trim\[0\]
*351 ringosc\.dstage\[7\]\.id\.trim\[1\]
*352 ringosc\.dstage\[7\]\.id\.ts
*353 ringosc\.dstage\[8\]\.id\.d0
*354 ringosc\.dstage\[8\]\.id\.d1
*355 ringosc\.dstage\[8\]\.id\.d2
*356 ringosc\.dstage\[8\]\.id\.out
*357 ringosc\.dstage\[8\]\.id\.trim\[0\]
*358 ringosc\.dstage\[8\]\.id\.trim\[1\]
*359 ringosc\.dstage\[8\]\.id\.ts
*360 ringosc\.dstage\[9\]\.id\.d0
*361 ringosc\.dstage\[9\]\.id\.d1
*362 ringosc\.dstage\[9\]\.id\.d2
*363 ringosc\.dstage\[9\]\.id\.trim\[0\]
*364 ringosc\.dstage\[9\]\.id\.trim\[1\]
*365 ringosc\.dstage\[9\]\.id\.ts
*366 ringosc\.iss\.ctrl0
*367 ringosc\.iss\.d0
*368 ringosc\.iss\.d1
*369 ringosc\.iss\.d2
*370 ringosc\.iss\.one
*371 ringosc\.iss\.reset
*372 ringosc\.iss\.trim\[0\]
*373 ringosc\.iss\.trim\[1\]
*374 ANTENNA__243__A
*375 ANTENNA__244__A
*376 ANTENNA__252__A
*377 ANTENNA__257__A_N
*378 ANTENNA__258__A
*379 ANTENNA__260__A1
*380 ANTENNA__266__A
*381 ANTENNA__267__A1
*382 ANTENNA__270__A1
*383 ANTENNA__287__B1
*384 ANTENNA__289__A1
*385 ANTENNA__348__A
*386 ANTENNA__349__A
*387 ANTENNA__350__A
*388 ANTENNA__358__A
*389 ANTENNA__360__A2
*390 ANTENNA__361__B
*391 ANTENNA__363__A2
*392 ANTENNA__364__A2
*393 ANTENNA__369__A2
*394 ANTENNA__373__A2
*395 ANTENNA__374__B1
*396 ANTENNA__375__A2
*397 ANTENNA__378__A2
*398 ANTENNA__379__A
*399 ANTENNA__380__A2
*400 ANTENNA__383__A2
*401 ANTENNA__384__A_N
*402 ANTENNA__387__B1
*403 ANTENNA__389__A2
*404 ANTENNA__392__A2
*405 ANTENNA__396__A2
*406 ANTENNA__399__A2
*407 ANTENNA__404__A2
*408 ANTENNA__409__B1
*409 ANTENNA__410__A2
*410 ANTENNA__411__A2
*411 ANTENNA__417__B1
*412 ANTENNA__419__A2
*413 ANTENNA__421__B1
*414 ANTENNA__422__A2
*415 ANTENNA__423__A2
*416 ANTENNA__424__A2
*417 ANTENNA__425__A
*418 ANTENNA__425__B
*419 ANTENNA__447__A
*420 ANTENNA__470__D
*421 FILLER_0_111
*422 FILLER_0_115
*423 FILLER_0_135
*424 FILLER_0_35
*425 FILLER_0_83
*426 FILLER_10_126
*427 FILLER_10_27
*428 FILLER_11_102
*429 FILLER_11_3
*430 FILLER_12_116
*431 FILLER_12_122
*432 FILLER_12_37
*433 FILLER_12_69
*434 FILLER_12_83
*435 FILLER_12_85
*436 FILLER_14_23
*437 FILLER_14_90
*438 FILLER_15_122
*439 FILLER_16_39
*440 FILLER_16_85
*441 FILLER_17_28
*442 FILLER_17_87
*443 FILLER_17_96
*444 FILLER_18_65
*445 FILLER_18_95
*446 FILLER_19_123
*447 FILLER_19_135
*448 FILLER_19_48
*449 FILLER_19_57
*450 FILLER_1_111
*451 FILLER_1_134
*452 FILLER_1_3
*453 FILLER_20_64
*454 FILLER_20_85
*455 FILLER_21_135
*456 FILLER_21_3
*457 FILLER_21_55
*458 FILLER_21_68
*459 FILLER_22_111
*460 FILLER_22_113
*461 FILLER_22_57
*462 FILLER_22_65
*463 FILLER_22_85
*464 FILLER_2_108
*465 FILLER_2_76
*466 FILLER_3_134
*467 FILLER_3_3
*468 FILLER_4_12
*469 FILLER_4_134
*470 FILLER_4_29
*471 FILLER_4_55
*472 FILLER_4_92
*473 FILLER_5_101
*474 FILLER_5_135
*475 FILLER_6_3
*476 FILLER_6_85
*477 FILLER_6_90
*478 FILLER_7_105
*479 FILLER_7_21
*480 FILLER_7_3
*481 FILLER_7_64
*482 FILLER_7_71
*483 FILLER_7_97
*484 FILLER_8_41
*485 FILLER_8_83
*486 FILLER_8_89
*487 FILLER_9_102
*488 FILLER_9_45
*489 FILLER_9_88
*490 PHY_0
*491 PHY_1
*492 PHY_10
*493 PHY_11
*494 PHY_12
*495 PHY_13
*496 PHY_14
*497 PHY_15
*498 PHY_16
*499 PHY_17
*500 PHY_18
*501 PHY_19
*502 PHY_2
*503 PHY_20
*504 PHY_21
*505 PHY_22
*506 PHY_23
*507 PHY_24
*508 PHY_25
*509 PHY_26
*510 PHY_27
*511 PHY_28
*512 PHY_29
*513 PHY_3
*514 PHY_30
*515 PHY_31
*516 PHY_32
*517 PHY_33
*518 PHY_34
*519 PHY_35
*520 PHY_36
*521 PHY_37
*522 PHY_38
*523 PHY_39
*524 PHY_4
*525 PHY_40
*526 PHY_41
*527 PHY_42
*528 PHY_43
*529 PHY_44
*530 PHY_45
*531 PHY_5
*532 PHY_6
*533 PHY_7
*534 PHY_8
*535 PHY_9
*536 TAP_46
*537 TAP_47
*538 TAP_48
*539 TAP_49
*540 TAP_50
*541 TAP_51
*542 TAP_52
*543 TAP_53
*544 TAP_54
*545 TAP_55
*546 TAP_56
*547 TAP_57
*548 TAP_58
*549 TAP_59
*550 TAP_60
*551 TAP_61
*552 TAP_62
*553 TAP_63
*554 TAP_64
*555 TAP_65
*556 TAP_66
*557 TAP_67
*558 TAP_68
*559 TAP_69
*560 TAP_70
*561 TAP_71
*562 TAP_72
*563 TAP_73
*564 TAP_74
*565 TAP_75
*566 TAP_76
*567 TAP_77
*568 TAP_78
*569 TAP_79
*570 TAP_80
*571 TAP_81
*572 TAP_82
*573 TAP_83
*574 TAP_84
*575 TAP_85
*576 TAP_86
*577 TAP_87
*578 TAP_88
*579 TAP_89
*580 TAP_90
*581 TAP_91
*582 TAP_92
*583 TAP_93
*584 TAP_94
*585 TAP_95
*586 _214_
*587 _215_
*588 _216_
*589 _217_
*590 _218_
*591 _219_
*592 _220_
*593 _221_
*594 _222_
*595 _223_
*596 _224_
*597 _225_
*598 _226_
*599 _227_
*600 _228_
*601 _229_
*602 _230_
*603 _231_
*604 _232_
*605 _233_
*606 _234_
*607 _235_
*608 _236_
*609 _237_
*610 _238_
*611 _239_
*612 _240_
*613 _241_
*614 _242_
*615 _243_
*616 _244_
*617 _245_
*618 _246_
*619 _247_
*620 _248_
*621 _249_
*622 _250_
*623 _251_
*624 _252_
*625 _253_
*626 _254_
*627 _255_
*628 _256_
*629 _257_
*630 _258_
*631 _259_
*632 _260_
*633 _261_
*634 _262_
*635 _263_
*636 _264_
*637 _265_
*638 _266_
*639 _267_
*640 _268_
*641 _269_
*642 _270_
*643 _271_
*644 _272_
*645 _273_
*646 _274_
*647 _275_
*648 _276_
*649 _277_
*650 _278_
*651 _279_
*652 _280_
*653 _281_
*654 _282_
*655 _283_
*656 _284_
*657 _285_
*658 _286_
*659 _287_
*660 _288_
*661 _289_
*662 _290_
*663 _291_
*664 _292_
*665 _293_
*666 _294_
*667 _295_
*668 _296_
*669 _297_
*670 _298_
*671 _299_
*672 _300_
*673 _301_
*674 _302_
*675 _303_
*676 _304_
*677 _305_
*678 _306_
*679 _307_
*680 _308_
*681 _309_
*682 _310_
*683 _311_
*684 _312_
*685 _313_
*686 _314_
*687 _315_
*688 _316_
*689 _317_
*690 _318_
*691 _319_
*692 _320_
*693 _321_
*694 _322_
*695 _323_
*696 _324_
*697 _325_
*698 _326_
*699 _327_
*700 _328_
*701 _329_
*702 _330_
*703 _331_
*704 _332_
*705 _333_
*706 _334_
*707 _335_
*708 _336_
*709 _337_
*710 _338_
*711 _339_
*712 _340_
*713 _341_
*714 _342_
*715 _343_
*716 _344_
*717 _345_
*718 _346_
*719 _347_
*720 _348_
*721 _349_
*722 _350_
*723 _351_
*724 _352_
*725 _353_
*726 _354_
*727 _355_
*728 _356_
*729 _357_
*730 _358_
*731 _359_
*732 _360_
*733 _361_
*734 _362_
*735 _363_
*736 _364_
*737 _365_
*738 _366_
*739 _367_
*740 _368_
*741 _369_
*742 _370_
*743 _371_
*744 _372_
*745 _373_
*746 _374_
*747 _375_
*748 _376_
*749 _377_
*750 _378_
*751 _379_
*752 _380_
*753 _381_
*754 _382_
*755 _383_
*756 _384_
*757 _385_
*758 _386_
*759 _387_
*760 _388_
*761 _389_
*762 _390_
*763 _391_
*764 _392_
*765 _393_
*766 _394_
*767 _395_
*768 _396_
*769 _397_
*770 _398_
*771 _399_
*772 _400_
*773 _401_
*774 _402_
*775 _403_
*776 _404_
*777 _405_
*778 _406_
*779 _407_
*780 _408_
*781 _409_
*782 _410_
*783 _411_
*784 _412_
*785 _413_
*786 _414_
*787 _415_
*788 _416_
*789 _417_
*790 _418_
*791 _419_
*792 _420_
*793 _421_
*794 _422_
*795 _423_
*796 _424_
*797 _425_
*798 _426_
*799 _427_
*800 _428_
*801 _429_
*802 _430_
*803 _431_
*804 _432_
*805 _433_
*806 _434_
*807 _435_
*808 _436_
*809 _437_
*810 _438_
*811 _439_
*812 _440_
*813 _441_
*814 _442_
*815 _443_
*816 _444_
*817 _445_
*818 _446_
*819 _447_
*820 _448_
*821 _449_
*822 _450_
*823 _451_
*824 _452_
*825 _453_
*826 _454_
*827 _455_
*828 _456_
*829 _457_
*830 _458_
*831 _459_
*832 _460_
*833 _461_
*834 _462_
*835 _463_
*836 _464_
*837 _465_
*838 _466_
*839 _467_
*840 _468_
*841 _469_
*842 _470_
*843 _471_
*844 _472_
*845 _473_
*846 _474_
*847 _475_
*848 _476_
*849 _477_
*850 clockp_buffer_0
*851 clockp_buffer_1
*852 ringosc\.dstage\[0\]\.id\.delaybuf0
*853 ringosc\.dstage\[0\]\.id\.delaybuf1
*854 ringosc\.dstage\[0\]\.id\.delayen0
*855 ringosc\.dstage\[0\]\.id\.delayen1
*856 ringosc\.dstage\[0\]\.id\.delayenb0
*857 ringosc\.dstage\[0\]\.id\.delayenb1
*858 ringosc\.dstage\[0\]\.id\.delayint0
*859 ringosc\.dstage\[10\]\.id\.delaybuf0
*860 ringosc\.dstage\[10\]\.id\.delaybuf1
*861 ringosc\.dstage\[10\]\.id\.delayen0
*862 ringosc\.dstage\[10\]\.id\.delayen1
*863 ringosc\.dstage\[10\]\.id\.delayenb0
*864 ringosc\.dstage\[10\]\.id\.delayenb1
*865 ringosc\.dstage\[10\]\.id\.delayint0
*866 ringosc\.dstage\[11\]\.id\.delaybuf0
*867 ringosc\.dstage\[11\]\.id\.delaybuf1
*868 ringosc\.dstage\[11\]\.id\.delayen0
*869 ringosc\.dstage\[11\]\.id\.delayen1
*870 ringosc\.dstage\[11\]\.id\.delayenb0
*871 ringosc\.dstage\[11\]\.id\.delayenb1
*872 ringosc\.dstage\[11\]\.id\.delayint0
*873 ringosc\.dstage\[1\]\.id\.delaybuf0
*874 ringosc\.dstage\[1\]\.id\.delaybuf1
*875 ringosc\.dstage\[1\]\.id\.delayen0
*876 ringosc\.dstage\[1\]\.id\.delayen1
*877 ringosc\.dstage\[1\]\.id\.delayenb0
*878 ringosc\.dstage\[1\]\.id\.delayenb1
*879 ringosc\.dstage\[1\]\.id\.delayint0
*880 ringosc\.dstage\[2\]\.id\.delaybuf0
*881 ringosc\.dstage\[2\]\.id\.delaybuf1
*882 ringosc\.dstage\[2\]\.id\.delayen0
*883 ringosc\.dstage\[2\]\.id\.delayen1
*884 ringosc\.dstage\[2\]\.id\.delayenb0
*885 ringosc\.dstage\[2\]\.id\.delayenb1
*886 ringosc\.dstage\[2\]\.id\.delayint0
*887 ringosc\.dstage\[3\]\.id\.delaybuf0
*888 ringosc\.dstage\[3\]\.id\.delaybuf1
*889 ringosc\.dstage\[3\]\.id\.delayen0
*890 ringosc\.dstage\[3\]\.id\.delayen1
*891 ringosc\.dstage\[3\]\.id\.delayenb0
*892 ringosc\.dstage\[3\]\.id\.delayenb1
*893 ringosc\.dstage\[3\]\.id\.delayint0
*894 ringosc\.dstage\[4\]\.id\.delaybuf0
*895 ringosc\.dstage\[4\]\.id\.delaybuf1
*896 ringosc\.dstage\[4\]\.id\.delayen0
*897 ringosc\.dstage\[4\]\.id\.delayen1
*898 ringosc\.dstage\[4\]\.id\.delayenb0
*899 ringosc\.dstage\[4\]\.id\.delayenb1
*900 ringosc\.dstage\[4\]\.id\.delayint0
*901 ringosc\.dstage\[5\]\.id\.delaybuf0
*902 ringosc\.dstage\[5\]\.id\.delaybuf1
*903 ringosc\.dstage\[5\]\.id\.delayen0
*904 ringosc\.dstage\[5\]\.id\.delayen1
*905 ringosc\.dstage\[5\]\.id\.delayenb0
*906 ringosc\.dstage\[5\]\.id\.delayenb1
*907 ringosc\.dstage\[5\]\.id\.delayint0
*908 ringosc\.dstage\[6\]\.id\.delaybuf0
*909 ringosc\.dstage\[6\]\.id\.delaybuf1
*910 ringosc\.dstage\[6\]\.id\.delayen0
*911 ringosc\.dstage\[6\]\.id\.delayen1
*912 ringosc\.dstage\[6\]\.id\.delayenb0
*913 ringosc\.dstage\[6\]\.id\.delayenb1
*914 ringosc\.dstage\[6\]\.id\.delayint0
*915 ringosc\.dstage\[7\]\.id\.delaybuf0
*916 ringosc\.dstage\[7\]\.id\.delaybuf1
*917 ringosc\.dstage\[7\]\.id\.delayen0
*918 ringosc\.dstage\[7\]\.id\.delayen1
*919 ringosc\.dstage\[7\]\.id\.delayenb0
*920 ringosc\.dstage\[7\]\.id\.delayenb1
*921 ringosc\.dstage\[7\]\.id\.delayint0
*922 ringosc\.dstage\[8\]\.id\.delaybuf0
*923 ringosc\.dstage\[8\]\.id\.delaybuf1
*924 ringosc\.dstage\[8\]\.id\.delayen0
*925 ringosc\.dstage\[8\]\.id\.delayen1
*926 ringosc\.dstage\[8\]\.id\.delayenb0
*927 ringosc\.dstage\[8\]\.id\.delayenb1
*928 ringosc\.dstage\[8\]\.id\.delayint0
*929 ringosc\.dstage\[9\]\.id\.delaybuf0
*930 ringosc\.dstage\[9\]\.id\.delaybuf1
*931 ringosc\.dstage\[9\]\.id\.delayen0
*932 ringosc\.dstage\[9\]\.id\.delayen1
*933 ringosc\.dstage\[9\]\.id\.delayenb0
*934 ringosc\.dstage\[9\]\.id\.delayenb1
*935 ringosc\.dstage\[9\]\.id\.delayint0
*936 ringosc\.ibufp00
*937 ringosc\.ibufp01
*938 ringosc\.ibufp10
*939 ringosc\.ibufp11
*940 ringosc\.iss\.const1
*941 ringosc\.iss\.ctrlen0
*942 ringosc\.iss\.delaybuf0
*943 ringosc\.iss\.delayen0
*944 ringosc\.iss\.delayen1
*945 ringosc\.iss\.delayenb0
*946 ringosc\.iss\.delayenb1
*947 ringosc\.iss\.delayint0
*948 ringosc\.iss\.reseten0

*PORTS
clockp[0] O
clockp[1] O
dco I
div[0] I
div[1] I
div[2] I
div[3] I
div[4] I
enable I
ext_trim[0] I
ext_trim[10] I
ext_trim[11] I
ext_trim[12] I
ext_trim[13] I
ext_trim[14] I
ext_trim[15] I
ext_trim[16] I
ext_trim[17] I
ext_trim[18] I
ext_trim[19] I
ext_trim[1] I
ext_trim[20] I
ext_trim[21] I
ext_trim[22] I
ext_trim[23] I
ext_trim[24] I
ext_trim[25] I
ext_trim[2] I
ext_trim[3] I
ext_trim[4] I
ext_trim[5] I
ext_trim[6] I
ext_trim[7] I
ext_trim[8] I
ext_trim[9] I
osc I
resetb I

*D_NET *3 0.00090088
*CONN
*P clockp[0] O
*I *850:X O *D sky130_fd_sc_hd__clkbuf_16
*CAP
1 clockp[0] 0.000197482
2 *850:X 0.000252958
3 *3:6 0.00045044
4 clockp[0] clockp[1] 0
*RES
1 *850:X *3:6 42.8989 
2 *3:6 clockp[0] 8.75787 
*END

*D_NET *4 0.0103417
*CONN
*P clockp[1] O
*I *851:X O *D sky130_fd_sc_hd__clkbuf_16
*CAP
1 clockp[1] 0.00227046
2 *851:X 0.000537291
3 *4:8 0.00280775
4 clockp[1] *604:A 0.000160209
5 clockp[1] *608:C1 0.000234986
6 clockp[1] *797:B 6.10551e-06
7 clockp[1] *5:151 0.000402648
8 clockp[1] *6:7 0
9 clockp[1] *6:14 6.25829e-05
10 clockp[1] *7:25 5.11935e-06
11 clockp[1] *10:30 9.63079e-05
12 clockp[1] *11:24 0
13 clockp[1] *90:23 0.000192323
14 clockp[1] *91:13 0.000134307
15 clockp[1] *94:8 0.000593157
16 clockp[1] *99:6 0.000596711
17 clockp[1] *128:6 0.000165593
18 clockp[1] *248:8 0
19 clockp[1] *253:26 0.000181644
20 clockp[1] *253:30 0.000243596
21 clockp[1] *253:34 0.000282393
22 clockp[1] *253:42 0.000148302
23 clockp[1] *255:8 3.76973e-05
24 clockp[1] *261:8 7.11161e-05
25 *4:8 *380:DIODE 4.93741e-05
26 *4:8 *387:DIODE 2.49269e-05
27 *4:8 *643:A2 0.000136486
28 *4:8 *723:B1 6.17437e-06
29 *4:8 *819:A 0.000218471
30 *4:8 *5:151 1.50266e-05
31 *4:8 *10:30 8.79821e-05
32 *4:8 *10:39 0.000105283
33 *4:8 *12:8 7.06542e-05
34 *4:8 *130:8 0.000181067
35 *4:8 *330:45 0.000215918
36 clockp[0] clockp[1] 0
*RES
1 *851:X *4:8 49.9004 
2 *4:8 clockp[1] 45.0684 
*END

*D_NET *5 0.0240773
*CONN
*P dco I
*I *419:DIODE I *D sky130_fd_sc_hd__diode_2
*I *746:B1 I *D sky130_fd_sc_hd__a21oi_2
*I *733:B I *D sky130_fd_sc_hd__nor2_2
*I *390:DIODE I *D sky130_fd_sc_hd__diode_2
*I *388:DIODE I *D sky130_fd_sc_hd__diode_2
*I *730:A I *D sky130_fd_sc_hd__nor2_2
*I *398:DIODE I *D sky130_fd_sc_hd__diode_2
*I *751:A I *D sky130_fd_sc_hd__buf_2
*I *385:DIODE I *D sky130_fd_sc_hd__diode_2
*I *395:DIODE I *D sky130_fd_sc_hd__diode_2
*I *721:A I *D sky130_fd_sc_hd__buf_2
*I *720:A I *D sky130_fd_sc_hd__buf_2
*I *386:DIODE I *D sky130_fd_sc_hd__diode_2
*I *819:A I *D sky130_fd_sc_hd__buf_2
*CAP
1 dco 0.000810688
2 *419:DIODE 0
3 *746:B1 0.000120776
4 *733:B 0.000272592
5 *390:DIODE 6.43063e-06
6 *388:DIODE 0.000124192
7 *730:A 0
8 *398:DIODE 0
9 *751:A 0.000155221
10 *385:DIODE 0
11 *395:DIODE 0
12 *721:A 0.000237652
13 *720:A 0
14 *386:DIODE 0
15 *819:A 0.000161314
16 *5:151 0.00078226
17 *5:119 0.000697025
18 *5:85 0.000474442
19 *5:79 0.00140997
20 *5:75 0.000989457
21 *5:72 0.000357783
22 *5:68 0.000333235
23 *5:66 0.00059828
24 *5:64 0.00044193
25 *5:55 0.000645522
26 *5:40 0.000872053
27 *5:28 0.00037079
28 *5:22 0.000552872
29 *5:19 0.000591111
30 *5:8 0.000633932
31 *5:5 0.0018467
32 *388:DIODE *147:29 7.15126e-05
33 *390:DIODE *729:B 2.46922e-05
34 *390:DIODE *93:25 1.27321e-05
35 *721:A *899:TE_B 4.00259e-06
36 *721:A *34:35 0.000187743
37 *721:A *35:27 5.68336e-05
38 *721:A *330:35 8.70831e-05
39 *721:A *330:45 2.64616e-05
40 *733:B *726:B 9.41704e-05
41 *733:B *729:B 0.000134996
42 *733:B *30:19 6.08617e-05
43 *733:B *30:35 6.821e-05
44 *733:B *93:25 2.88438e-05
45 *733:B *273:38 0.000132353
46 *733:B *273:49 8.73233e-05
47 *733:B *275:67 8.13127e-05
48 *746:B1 *764:B1 9.84851e-05
49 *746:B1 *205:22 0.000135037
50 *746:B1 *217:12 0.000136738
51 *751:A *600:A 1.09903e-05
52 *751:A *92:7 1.71675e-05
53 *751:A *275:50 3.39928e-05
54 *819:A *253:8 0.000117069
55 *5:5 *11:19 0
56 *5:5 *12:8 0
57 *5:8 *131:8 0.00024996
58 *5:8 *253:8 2.89817e-05
59 *5:8 *333:13 9.39229e-05
60 *5:8 *346:16 7.28722e-06
61 *5:8 *346:31 1.05658e-05
62 *5:19 *326:9 1.37246e-05
63 *5:19 *331:10 2.55642e-05
64 *5:19 *331:15 0.000159018
65 *5:19 *333:13 7.73838e-05
66 *5:19 *346:31 0.000209795
67 *5:22 *326:9 0.000342263
68 *5:22 *327:8 0.000210959
69 *5:22 *328:8 0.0002263
70 *5:28 *903:TE 1.21972e-05
71 *5:28 *334:15 0.000617537
72 *5:28 *335:14 0.000482134
73 *5:28 *335:19 0.000102629
74 *5:40 *197:5 8.41122e-05
75 *5:40 *326:9 4.05745e-05
76 *5:40 *328:8 0.000178517
77 *5:55 *741:B1 8.87135e-05
78 *5:55 *761:A1 7.53384e-06
79 *5:55 *878:TE_B 0.000142563
80 *5:55 *23:11 0.000182358
81 *5:55 *23:26 0.000435277
82 *5:55 *34:35 0.000167452
83 *5:55 *35:27 5.33753e-05
84 *5:55 *207:31 2.93431e-05
85 *5:55 *305:8 1.76557e-05
86 *5:55 *308:8 1.94812e-05
87 *5:64 *761:A1 7.28721e-05
88 *5:64 *761:A2 1.40958e-05
89 *5:64 *217:12 7.9784e-05
90 *5:64 *227:8 6.32792e-05
91 *5:64 *285:6 2.55642e-05
92 *5:64 *372:17 0
93 *5:66 *205:22 4.67914e-05
94 *5:66 *285:6 0.000189155
95 *5:66 *372:17 0
96 *5:68 *856:A 0.000168129
97 *5:68 *858:A 4.59441e-05
98 *5:68 *205:22 2.82419e-06
99 *5:68 *285:6 8.02832e-05
100 *5:72 *855:TE 6.51997e-06
101 *5:72 *855:Z 7.18515e-05
102 *5:72 *856:A 7.29314e-05
103 *5:72 *858:A 3.61578e-05
104 *5:72 *288:17 0.000190998
105 *5:75 *855:A 2.37172e-05
106 *5:75 *206:7 4.67488e-05
107 *5:79 *667:A 0.000118384
108 *5:79 *684:A1 0.000265277
109 *5:79 *159:7 2.46803e-05
110 *5:79 *206:7 1.36806e-05
111 *5:79 *275:50 1.61361e-05
112 *5:85 *392:DIODE 0.000102389
113 *5:85 *666:A 4.93812e-05
114 *5:85 *92:16 0
115 *5:85 *136:15 8.45925e-05
116 *5:85 *298:16 6.87115e-06
117 *5:85 *339:10 0.000482032
118 *5:119 *34:35 5.31128e-05
119 *5:119 *92:48 6.82544e-05
120 *5:119 *139:83 3.12959e-05
121 *5:119 *163:33 0.000270197
122 *5:119 *197:21 0.000103545
123 *5:119 *273:49 0.000148202
124 *5:151 *608:C1 0.000154751
125 *5:151 *612:B 0.000136486
126 *5:151 *617:B1 1.94693e-05
127 *5:151 *643:A2 0.000136486
128 *5:151 *12:8 0
129 *5:151 *35:27 0.00014338
130 *5:151 *35:36 0
131 *5:151 *86:16 5.56791e-05
132 *5:151 *97:30 8.49404e-06
133 *5:151 *100:8 0.000164282
134 *5:151 *130:8 3.44342e-05
135 clockp[1] *5:151 0.000402648
136 *4:8 *819:A 0.000218471
137 *4:8 *5:151 1.50266e-05
*RES
1 dco *5:5 2.2176 
2 *5:5 *5:8 13.2511 
3 *5:8 *819:A 41.48 
4 *5:8 *5:19 21.1314 
5 *5:19 *5:22 7.31214 
6 *5:22 *5:28 38.99 
7 *5:28 *386:DIODE 23 
8 *5:22 *720:A 23 
9 *5:19 *5:40 18.9564 
10 *5:40 *721:A 43.1579 
11 *5:40 *5:55 26.455 
12 *5:55 *395:DIODE 23 
13 *5:55 *5:64 19.3086 
14 *5:64 *5:66 2.78607 
15 *5:66 *5:68 2.43393 
16 *5:68 *5:72 18.6664 
17 *5:72 *5:75 3.50071 
18 *5:75 *5:79 10.0464 
19 *5:79 *5:85 38.8864 
20 *5:85 *385:DIODE 23 
21 *5:79 *751:A 25.7757 
22 *5:75 *398:DIODE 23 
23 *5:72 *730:A 23 
24 *5:68 *388:DIODE 39.5743 
25 *5:66 *5:119 17.5269 
26 *5:119 *390:DIODE 38.3211 
27 *5:119 *733:B 44.5354 
28 *5:64 *746:B1 41.0036 
29 *5:5 *5:151 35.6403 
30 *5:151 *419:DIODE 23 
*END

*D_NET *6 0.0114386
*CONN
*P div[0] I
*I *659:B1 I *D sky130_fd_sc_hd__o21ai_2
*I *629:A_N I *D sky130_fd_sc_hd__nand3b_2
*I *377:DIODE I *D sky130_fd_sc_hd__diode_2
*I *383:DIODE I *D sky130_fd_sc_hd__diode_2
*CAP
1 div[0] 0.000510846
2 *659:B1 0
3 *629:A_N 6.02721e-05
4 *377:DIODE 0.000109804
5 *383:DIODE 0
6 *6:61 0.000136464
7 *6:49 0.000920432
8 *6:36 0.000983951
9 *6:33 0.00145124
10 *6:14 0.00177198
11 *6:7 0.0010811
12 *377:DIODE *251:40 9.5877e-05
13 *377:DIODE *251:50 1.76557e-05
14 *629:A_N *120:29 1.09903e-05
15 *629:A_N *252:92 9.67842e-05
16 *629:A_N *253:79 3.3577e-05
17 *6:7 *7:5 0
18 *6:7 *90:23 0.000300156
19 *6:7 *255:25 0.000559836
20 *6:14 *604:A 6.25829e-05
21 *6:14 *850:A 0.000184527
22 *6:14 *78:22 6.63259e-05
23 *6:14 *96:8 0.000198196
24 *6:14 *119:12 0.000156642
25 *6:33 *604:B 6.6473e-05
26 *6:33 *627:B 0.000189544
27 *6:33 *804:A 0.000272122
28 *6:33 *804:B 2.93747e-05
29 *6:33 *194:8 0.000247704
30 *6:33 *265:8 0.000143655
31 *6:36 *804:A 0.000156777
32 *6:36 *249:35 6.16531e-05
33 *6:36 *254:39 0
34 *6:36 *254:46 0
35 *6:49 *45:8 2.73792e-05
36 *6:49 *55:6 0
37 *6:49 *120:18 0.000653497
38 *6:49 *249:28 2.47168e-05
39 *6:49 *249:35 0.000102638
40 *6:49 *250:27 0.000191157
41 *6:49 *252:24 0
42 *6:49 *254:10 0.000107363
43 *6:49 *254:39 0
44 *6:49 *254:265 0
45 *6:49 *278:8 0.000138708
46 *6:49 *371:46 7.75329e-06
47 *6:61 *78:22 1.24585e-05
48 *6:61 *119:12 1.58785e-05
49 *6:61 *252:92 8.43466e-05
50 *6:61 *253:79 3.3577e-05
51 clockp[1] *6:7 0
52 clockp[1] *6:14 6.25829e-05
*RES
1 div[0] *6:7 10.0459 
2 *6:7 *6:14 41.7346 
3 *6:14 *6:33 37.2471 
4 *6:33 *6:36 17.9621 
5 *6:36 *383:DIODE 38 
6 *6:36 *6:49 44.2721 
7 *6:49 *377:DIODE 39.5743 
8 *6:7 *6:61 16.7711 
9 *6:61 *629:A_N 24.595 
10 *6:61 *659:B1 23 
*END

*D_NET *7 0.007061
*CONN
*P div[1] I
*I *376:DIODE I *D sky130_fd_sc_hd__diode_2
*I *378:DIODE I *D sky130_fd_sc_hd__diode_2
*I *624:A I *D sky130_fd_sc_hd__inv_2
*I *630:A I *D sky130_fd_sc_hd__and2_2
*CAP
1 div[1] 0.000784722
2 *376:DIODE 0
3 *378:DIODE 0
4 *624:A 2.99657e-05
5 *630:A 0
6 *7:44 0.000221847
7 *7:31 0.000579488
8 *7:25 0.00128691
9 *7:10 0.000156268
10 *7:5 0.00190023
11 *7:5 *8:7 0
12 *7:5 *120:29 7.09028e-05
13 *7:5 *255:25 0
14 *7:10 *625:A_N 4.07676e-05
15 *7:10 *630:B 5.08899e-05
16 *7:10 *96:15 0.000121284
17 *7:10 *96:22 0.000216051
18 *7:10 *152:10 3.70187e-05
19 *7:25 *8:7 0
20 *7:25 *84:44 0
21 *7:25 *116:11 0.000482267
22 *7:25 *120:29 8.01575e-05
23 *7:25 *261:8 0.000100169
24 *7:31 *707:A1 5.3304e-05
25 *7:31 *707:A2 4.05745e-05
26 *7:31 *714:B 1.01436e-05
27 *7:31 *798:A 2.49836e-05
28 *7:31 *84:39 5.94125e-05
29 *7:31 *85:33 0.000101708
30 *7:31 *116:11 5.10805e-05
31 *7:31 *256:24 0.000135037
32 *7:44 *707:B1 0.000238194
33 *7:44 *713:A1 0
34 *7:44 *116:11 1.76557e-05
35 *7:44 *192:10 5.31444e-05
36 *7:44 *257:20 8.62876e-05
37 *7:44 *257:56 2.5415e-05
38 clockp[1] *7:25 5.11935e-06
39 *6:7 *7:5 0
*RES
1 div[1] *7:5 2.30347 
2 *7:5 *7:10 27.5468 
3 *7:10 *630:A 23 
4 *7:5 *7:25 32.2345 
5 *7:25 *7:31 35.9864 
6 *7:31 *624:A 23.4971 
7 *7:31 *7:44 34.9921 
8 *7:44 *378:DIODE 23 
9 *7:25 *376:DIODE 23 
*END

*D_NET *8 0.0124259
*CONN
*P div[2] I
*I *375:DIODE I *D sky130_fd_sc_hd__diode_2
*I *616:A I *D sky130_fd_sc_hd__inv_2
*CAP
1 div[2] 0.00126465
2 *375:DIODE 0
3 *616:A 0
4 *8:34 0.000282924
5 *8:28 0.00222814
6 *8:14 0.000694491
7 *8:7 0.00390436
8 *8:7 *9:5 0
9 *8:7 *9:63 0
10 *8:14 *605:B 5.3304e-05
11 *8:14 *607:B 0.000246208
12 *8:14 *623:B 9.75779e-05
13 *8:14 *826:A 9.65021e-05
14 *8:14 *78:22 6.8743e-05
15 *8:14 *79:12 1.41077e-05
16 *8:14 *84:44 0
17 *8:14 *89:14 0.000469804
18 *8:14 *97:5 0.000166987
19 *8:14 *115:7 9.02364e-05
20 *8:14 *151:8 0.000158256
21 *8:14 *248:18 8.48502e-06
22 *8:14 *253:26 4.80423e-06
23 *8:14 *253:34 9.41704e-05
24 *8:14 *254:91 2.33476e-05
25 *8:14 *261:8 3.47781e-05
26 *8:28 *591:A0 0.000233764
27 *8:28 *834:D 1.90678e-05
28 *8:28 *834:RESET_B 1.71551e-05
29 *8:28 *87:8 6.17437e-06
30 *8:28 *253:26 0.000181045
31 *8:28 *254:79 8.73233e-05
32 *8:28 *254:81 2.193e-05
33 *8:28 *254:91 0.000231938
34 *8:28 *254:194 0.00026114
35 *8:28 *254:200 6.17437e-06
36 *8:28 *259:10 0.000233211
37 *8:28 *274:8 0.000187363
38 *8:34 *52:6 6.91319e-05
39 *8:34 *54:6 0.000454728
40 *8:34 *68:9 0.000128159
41 *8:34 *251:34 5.79559e-05
42 *8:34 *251:40 4.03352e-05
43 *8:34 *252:8 0
44 *8:34 *252:15 9.84851e-05
45 *8:34 *284:29 8.8896e-05
46 *7:5 *8:7 0
47 *7:25 *8:7 0
*RES
1 div[2] *8:7 11.248 
2 *8:7 *8:14 45.2975 
3 *8:14 *616:A 38 
4 *8:7 *8:28 43.2232 
5 *8:28 *8:34 39.0107 
6 *8:34 *375:DIODE 23 
*END

*D_NET *9 0.0122816
*CONN
*P div[3] I
*I *374:DIODE I *D sky130_fd_sc_hd__diode_2
*I *381:DIODE I *D sky130_fd_sc_hd__diode_2
*I *384:DIODE I *D sky130_fd_sc_hd__diode_2
*I *639:A1 I *D sky130_fd_sc_hd__o21ba_2
*I *661:A1 I *D sky130_fd_sc_hd__o211a_2
*I *632:A1 I *D sky130_fd_sc_hd__o2111a_2
*I *615:A I *D sky130_fd_sc_hd__inv_2
*I *379:DIODE I *D sky130_fd_sc_hd__diode_2
*CAP
1 div[3] 0.000208708
2 *374:DIODE 0.000122059
3 *381:DIODE 0
4 *384:DIODE 0
5 *639:A1 0.000203439
6 *661:A1 1.3161e-05
7 *632:A1 2.43873e-05
8 *615:A 0
9 *379:DIODE 0.000332517
10 *9:76 0.000217194
11 *9:71 0.000579603
12 *9:63 0.00193474
13 *9:38 0.000416956
14 *9:25 0.00102476
15 *9:15 0.000929727
16 *9:7 0.000462225
17 *9:5 0.0019031
18 *374:DIODE *681:A 5.50049e-05
19 *374:DIODE *708:A 0.000104519
20 *379:DIODE *79:6 8.85189e-05
21 *379:DIODE *123:8 0.000141399
22 *632:A1 *134:9 0
23 *639:A1 *639:A2 0.00026315
24 *639:A1 *639:B1_N 0.000167288
25 *639:A1 *661:A2 5.3304e-05
26 *639:A1 *352:33 0.000177397
27 *661:A1 *639:B1_N 3.92779e-05
28 *661:A1 *661:A2 3.92779e-05
29 *9:5 *10:5 0
30 *9:15 *123:8 7.9952e-05
31 *9:25 *106:21 5.41385e-05
32 *9:25 *107:6 0.000352657
33 *9:25 *123:8 3.57033e-05
34 *9:25 *124:6 0.000116314
35 *9:25 *334:15 0.000156925