*SPEF "ieee 1481-1999"
*DESIGN "digital_pll"
*DATE "11:11:11 Fri 11 11, 1111"
*VENDOR "OpenRCX"
*PROGRAM "Parallel Extraction"
*VERSION "1.0"
*DESIGN_FLOW "NAME_SCOPE LOCAL" "PIN_CAP NONE"
*DIVIDER /
*DELIMITER :
*BUS_DELIMITER []
*T_UNIT 1 NS
*C_UNIT 1 PF
*R_UNIT 1 OHM
*L_UNIT 1 HENRY

*NAME_MAP
*3 clockp[0]
*4 clockp[1]
*5 dco
*6 div[0]
*7 div[1]
*8 div[2]
*9 div[3]
*10 div[4]
*11 enable
*12 ext_trim[0]
*13 ext_trim[10]
*14 ext_trim[11]
*15 ext_trim[12]
*16 ext_trim[13]
*17 ext_trim[14]
*18 ext_trim[15]
*19 ext_trim[16]
*20 ext_trim[17]
*21 ext_trim[18]
*22 ext_trim[19]
*23 ext_trim[1]
*24 ext_trim[20]
*25 ext_trim[21]
*26 ext_trim[22]
*27 ext_trim[23]
*28 ext_trim[24]
*29 ext_trim[25]
*30 ext_trim[2]
*31 ext_trim[3]
*32 ext_trim[4]
*33 ext_trim[5]
*34 ext_trim[6]
*35 ext_trim[7]
*36 ext_trim[8]
*37 ext_trim[9]
*38 osc
*39 resetb
*40 _000_
*41 _001_
*42 _002_
*43 _003_
*44 _004_
*45 _005_
*46 _006_
*47 _007_
*48 _008_
*49 _009_
*50 _010_
*51 _011_
*52 _012_
*53 _013_
*54 _014_
*55 _015_
*56 _016_
*57 _017_
*58 _018_
*59 _019_
*60 _020_
*61 _021_
*62 _022_
*63 _023_
*64 _024_
*65 _025_
*66 _026_
*67 _027_
*68 _028_
*69 _029_
*70 _030_
*71 _031_
*72 _032_
*73 _033_
*74 _034_
*75 _035_
*76 _036_
*77 _037_
*78 _038_
*79 _039_
*80 _040_
*81 _041_
*82 _042_
*83 _043_
*84 _044_
*85 _045_
*86 _046_
*87 _047_
*88 _048_
*89 _049_
*90 _050_
*91 _051_
*92 _052_
*93 _053_
*94 _054_
*95 _055_
*96 _056_
*97 _057_
*98 _058_
*99 _059_
*100 _060_
*101 _061_
*102 _062_
*103 _063_
*104 _064_
*105 _065_
*106 _066_
*107 _067_
*108 _068_
*109 _069_
*110 _070_
*111 _071_
*112 _072_
*113 _073_
*114 _074_
*115 _075_
*116 _076_
*117 _077_
*118 _078_
*119 _079_
*120 _080_
*121 _081_
*122 _082_
*123 _083_
*124 _084_
*125 _085_
*126 _086_
*127 _087_
*128 _088_
*129 _089_
*130 _090_
*131 _091_
*132 _092_
*133 _093_
*134 _094_
*135 _095_
*136 _096_
*137 _097_
*138 _098_
*139 _099_
*140 _100_
*141 _101_
*142 _102_
*143 _103_
*144 _104_
*145 _105_
*146 _106_
*147 _107_
*148 _108_
*149 _109_
*150 _110_
*151 _111_
*152 _112_
*153 _113_
*154 _114_
*155 _115_
*156 _116_
*157 _117_
*158 _118_
*159 _119_
*160 _120_
*161 _121_
*162 _122_
*163 _123_
*164 _124_
*165 _125_
*166 _126_
*167 _127_
*168 _128_
*169 _129_
*170 _130_
*171 _131_
*172 _132_
*173 _133_
*174 _134_
*175 _135_
*176 _136_
*177 _137_
*178 _138_
*179 _139_
*180 _140_
*181 _141_
*182 _142_
*183 _143_
*184 _144_
*185 _145_
*186 _146_
*187 _147_
*188 _148_
*189 _149_
*190 _150_
*191 _151_
*192 _152_
*193 _153_
*194 _154_
*195 _155_
*196 _156_
*197 _157_
*198 _158_
*199 _159_
*200 _160_
*201 _161_
*202 _162_
*203 _163_
*204 _164_
*205 _165_
*206 _166_
*207 _167_
*208 _168_
*209 _169_
*210 _170_
*211 _171_
*212 _172_
*213 _173_
*214 _174_
*215 _175_
*216 pll_control\.clock
*217 pll_control\.count0\[0\]
*218 pll_control\.count0\[1\]
*219 pll_control\.count0\[2\]
*220 pll_control\.count0\[3\]
*221 pll_control\.count0\[4\]
*222 pll_control\.count1\[0\]
*223 pll_control\.count1\[1\]
*224 pll_control\.count1\[2\]
*225 pll_control\.count1\[3\]
*226 pll_control\.count1\[4\]
*227 pll_control\.oscbuf\[0\]
*228 pll_control\.oscbuf\[1\]
*229 pll_control\.oscbuf\[2\]
*230 pll_control\.prep\[0\]
*231 pll_control\.prep\[1\]
*232 pll_control\.prep\[2\]
*233 pll_control\.tint\[0\]
*234 pll_control\.tint\[1\]
*235 pll_control\.tint\[2\]
*236 pll_control\.tint\[3\]
*237 pll_control\.tint\[4\]
*238 pll_control\.tval\[0\]
*239 pll_control\.tval\[1\]
*240 ringosc\.c\[0\]
*241 ringosc\.c\[1\]
*242 ringosc\.clockp\[1\]
*243 ringosc\.dstage\[0\]\.id\.d0
*244 ringosc\.dstage\[0\]\.id\.d1
*245 ringosc\.dstage\[0\]\.id\.d2
*246 ringosc\.dstage\[0\]\.id\.in
*247 ringosc\.dstage\[0\]\.id\.out
*248 ringosc\.dstage\[0\]\.id\.trim\[0\]
*249 ringosc\.dstage\[0\]\.id\.trim\[1\]
*250 ringosc\.dstage\[0\]\.id\.ts
*251 ringosc\.dstage\[10\]\.id\.d0
*252 ringosc\.dstage\[10\]\.id\.d1
*253 ringosc\.dstage\[10\]\.id\.d2
*254 ringosc\.dstage\[10\]\.id\.in
*255 ringosc\.dstage\[10\]\.id\.out
*256 ringosc\.dstage\[10\]\.id\.trim\[0\]
*257 ringosc\.dstage\[10\]\.id\.trim\[1\]
*258 ringosc\.dstage\[10\]\.id\.ts
*259 ringosc\.dstage\[11\]\.id\.d0
*260 ringosc\.dstage\[11\]\.id\.d1
*261 ringosc\.dstage\[11\]\.id\.d2
*262 ringosc\.dstage\[11\]\.id\.out
*263 ringosc\.dstage\[11\]\.id\.trim\[0\]
*264 ringosc\.dstage\[11\]\.id\.trim\[1\]
*265 ringosc\.dstage\[11\]\.id\.ts
*266 ringosc\.dstage\[1\]\.id\.d0
*267 ringosc\.dstage\[1\]\.id\.d1
*268 ringosc\.dstage\[1\]\.id\.d2
*269 ringosc\.dstage\[1\]\.id\.out
*270 ringosc\.dstage\[1\]\.id\.trim\[0\]
*271 ringosc\.dstage\[1\]\.id\.trim\[1\]
*272 ringosc\.dstage\[1\]\.id\.ts
*273 ringosc\.dstage\[2\]\.id\.d0
*274 ringosc\.dstage\[2\]\.id\.d1
*275 ringosc\.dstage\[2\]\.id\.d2
*276 ringosc\.dstage\[2\]\.id\.out
*277 ringosc\.dstage\[2\]\.id\.trim\[0\]
*278 ringosc\.dstage\[2\]\.id\.trim\[1\]
*279 ringosc\.dstage\[2\]\.id\.ts
*280 ringosc\.dstage\[3\]\.id\.d0
*281 ringosc\.dstage\[3\]\.id\.d1
*282 ringosc\.dstage\[3\]\.id\.d2
*283 ringosc\.dstage\[3\]\.id\.out
*284 ringosc\.dstage\[3\]\.id\.trim\[0\]
*285 ringosc\.dstage\[3\]\.id\.trim\[1\]
*286 ringosc\.dstage\[3\]\.id\.ts
*287 ringosc\.dstage\[4\]\.id\.d0
*288 ringosc\.dstage\[4\]\.id\.d1
*289 ringosc\.dstage\[4\]\.id\.d2
*290 ringosc\.dstage\[4\]\.id\.out
*291 ringosc\.dstage\[4\]\.id\.trim\[0\]
*292 ringosc\.dstage\[4\]\.id\.trim\[1\]
*293 ringosc\.dstage\[4\]\.id\.ts
*294 ringosc\.dstage\[5\]\.id\.d0
*295 ringosc\.dstage\[5\]\.id\.d1
*296 ringosc\.dstage\[5\]\.id\.d2
*297 ringosc\.dstage\[5\]\.id\.out
*298 ringosc\.dstage\[5\]\.id\.trim\[0\]
*299 ringosc\.dstage\[5\]\.id\.trim\[1\]
*300 ringosc\.dstage\[5\]\.id\.ts
*301 ringosc\.dstage\[6\]\.id\.d0
*302 ringosc\.dstage\[6\]\.id\.d1
*303 ringosc\.dstage\[6\]\.id\.d2
*304 ringosc\.dstage\[6\]\.id\.out
*305 ringosc\.dstage\[6\]\.id\.trim\[0\]
*306 ringosc\.dstage\[6\]\.id\.trim\[1\]
*307 ringosc\.dstage\[6\]\.id\.ts
*308 ringosc\.dstage\[7\]\.id\.d0
*309 ringosc\.dstage\[7\]\.id\.d1
*310 ringosc\.dstage\[7\]\.id\.d2
*311 ringosc\.dstage\[7\]\.id\.out
*312 ringosc\.dstage\[7\]\.id\.trim\[0\]
*313 ringosc\.dstage\[7\]\.id\.trim\[1\]
*314 ringosc\.dstage\[7\]\.id\.ts
*315 ringosc\.dstage\[8\]\.id\.d0
*316 ringosc\.dstage\[8\]\.id\.d1
*317 ringosc\.dstage\[8\]\.id\.d2
*318 ringosc\.dstage\[8\]\.id\.out
*319 ringosc\.dstage\[8\]\.id\.trim\[0\]
*320 ringosc\.dstage\[8\]\.id\.trim\[1\]
*321 ringosc\.dstage\[8\]\.id\.ts
*322 ringosc\.dstage\[9\]\.id\.d0
*323 ringosc\.dstage\[9\]\.id\.d1
*324 ringosc\.dstage\[9\]\.id\.d2
*325 ringosc\.dstage\[9\]\.id\.trim\[0\]
*326 ringosc\.dstage\[9\]\.id\.trim\[1\]
*327 ringosc\.dstage\[9\]\.id\.ts
*328 ringosc\.iss\.ctrl0
*329 ringosc\.iss\.d0
*330 ringosc\.iss\.d1
*331 ringosc\.iss\.d2
*332 ringosc\.iss\.one
*333 ringosc\.iss\.reset
*334 ringosc\.iss\.trim\[0\]
*335 ringosc\.iss\.trim\[1\]
*336 ANTENNA__207__A1
*337 ANTENNA__213__A1
*338 ANTENNA__213__B1
*339 ANTENNA__214__B1
*340 ANTENNA__215__B1
*341 ANTENNA__216__A
*342 ANTENNA__219__A
*343 ANTENNA__222__A1
*344 ANTENNA__222__B2
*345 ANTENNA__225__B1
*346 ANTENNA__235__A
*347 ANTENNA__288__A
*348 ANTENNA__289__A1
*349 ANTENNA__289__A2
*350 ANTENNA__293__A_N
*351 ANTENNA__295__A1
*352 ANTENNA__295__A2
*353 ANTENNA__296__B
*354 ANTENNA__299__A1
*355 ANTENNA__299__A2
*356 ANTENNA__300__A1
*357 ANTENNA__300__A2
*358 ANTENNA__302__A1
*359 ANTENNA__302__A2
*360 ANTENNA__305__A1
*361 ANTENNA__305__A2
*362 ANTENNA__306__A1
*363 ANTENNA__306__A2
*364 ANTENNA__309__A1
*365 ANTENNA__309__A2
*366 ANTENNA__310__A1
*367 ANTENNA__310__A2
*368 ANTENNA__312__A1
*369 ANTENNA__312__A2
*370 ANTENNA__313__A_N
*371 ANTENNA__313__B
*372 ANTENNA__314__A1
*373 ANTENNA__316__B1
*374 ANTENNA__316__B2
*375 ANTENNA__317__A1
*376 ANTENNA__317__A2
*377 ANTENNA__319__A1
*378 ANTENNA__319__A2
*379 ANTENNA__326__A1
*380 ANTENNA__326__A2
*381 ANTENNA__334__B1
*382 ANTENNA__334__B2
*383 ANTENNA__337__A1
*384 ANTENNA__337__A2
*385 ANTENNA__341__B1
*386 ANTENNA__341__B2
*387 ANTENNA__342__A1
*388 ANTENNA__342__A2
*389 ANTENNA__343__A1
*390 ANTENNA__343__A2
*391 ANTENNA__346__B1
*392 ANTENNA__346__B2
*393 ANTENNA__348__A1
*394 ANTENNA__348__A2
*395 ANTENNA__350__B1
*396 ANTENNA__350__B2
*397 ANTENNA__351__A1
*398 ANTENNA__351__A2
*399 ANTENNA__352__A_N
*400 ANTENNA__353__A1
*401 ANTENNA__353__A2
*402 ANTENNA__354__A1
*403 ANTENNA__354__A2
*404 ANTENNA__355__A
*405 ANTENNA__355__B
*406 ANTENNA__356__A
*407 ANTENNA__357__A
*408 ANTENNA__358__A
*409 ANTENNA__359__A
*410 ANTENNA__360__A
*411 ANTENNA__361__A
*412 ANTENNA__362__A
*413 ANTENNA__363__A
*414 ANTENNA__364__A
*415 ANTENNA__365__A
*416 ANTENNA__366__A
*417 ANTENNA__367__A
*418 ANTENNA__368__A
*419 ANTENNA__369__A
*420 ANTENNA__370__A
*421 ANTENNA__371__A
*422 ANTENNA__372__A
*423 ANTENNA__373__A
*424 ANTENNA__374__A
*425 ANTENNA__375__A
*426 ANTENNA__376__A
*427 ANTENNA__377__A
*428 ANTENNA__378__A
*429 ANTENNA__394__D
*430 FILLER_0_81
*431 FILLER_0_90
*432 FILLER_10_27
*433 FILLER_10_3
*434 FILLER_10_70
*435 FILLER_10_85
*436 FILLER_11_100
*437 FILLER_11_113
*438 FILLER_11_131
*439 FILLER_11_135
*440 FILLER_11_55
*441 FILLER_11_85
*442 FILLER_12_107
*443 FILLER_12_16
*444 FILLER_12_27
*445 FILLER_12_75
*446 FILLER_12_85
*447 FILLER_13_118
*448 FILLER_13_24
*449 FILLER_13_3
*450 FILLER_13_69
*451 FILLER_13_94
*452 FILLER_14_10
*453 FILLER_14_135
*454 FILLER_14_27
*455 FILLER_14_5
*456 FILLER_14_69
*457 FILLER_14_79
*458 FILLER_14_83
*459 FILLER_15_135
*460 FILLER_15_23
*461 FILLER_15_67
*462 FILLER_15_75
*463 FILLER_15_99
*464 FILLER_16_116
*465 FILLER_16_135
*466 FILLER_16_45
*467 FILLER_16_67
*468 FILLER_16_78
*469 FILLER_17_108
*470 FILLER_17_135
*471 FILLER_17_26
*472 FILLER_17_49
*473 FILLER_17_69
*474 FILLER_17_84
*475 FILLER_18_72
*476 FILLER_18_75
*477 FILLER_18_97
*478 FILLER_19_111
*479 FILLER_19_47
*480 FILLER_1_3
*481 FILLER_1_50
*482 FILLER_1_59
*483 FILLER_20_33
*484 FILLER_20_97
*485 FILLER_21_111
*486 FILLER_21_135
*487 FILLER_21_72
*488 FILLER_22_127
*489 FILLER_22_35
*490 FILLER_22_83
*491 FILLER_22_88
*492 FILLER_2_134
*493 FILLER_2_3
*494 FILLER_2_35
*495 FILLER_2_79
*496 FILLER_2_99
*497 FILLER_3_109
*498 FILLER_3_118
*499 FILLER_3_132
*500 FILLER_3_3
*501 FILLER_3_49
*502 FILLER_3_76
*503 FILLER_3_99
*504 FILLER_4_132
*505 FILLER_4_31
*506 FILLER_4_55
*507 FILLER_4_62
*508 FILLER_4_90
*509 FILLER_5_134
*510 FILLER_5_78
*511 FILLER_5_87
*512 FILLER_6_120
*513 FILLER_6_95
*514 FILLER_7_113
*515 FILLER_7_124
*516 FILLER_7_41
*517 FILLER_7_47
*518 FILLER_7_55
*519 FILLER_7_89
*520 FILLER_8_128
*521 FILLER_8_134
*522 FILLER_8_24
*523 FILLER_8_42
*524 FILLER_8_58
*525 FILLER_8_70
*526 FILLER_8_90
*527 FILLER_9_111
*528 FILLER_9_125
*529 FILLER_9_135
*530 FILLER_9_57
*531 FILLER_9_78
*532 PHY_0
*533 PHY_1
*534 PHY_10
*535 PHY_11
*536 PHY_12
*537 PHY_13
*538 PHY_14
*539 PHY_15
*540 PHY_16
*541 PHY_17
*542 PHY_18
*543 PHY_19
*544 PHY_2
*545 PHY_20
*546 PHY_21
*547 PHY_22
*548 PHY_23
*549 PHY_24
*550 PHY_25
*551 PHY_26
*552 PHY_27
*553 PHY_28
*554 PHY_29
*555 PHY_3
*556 PHY_30
*557 PHY_31
*558 PHY_32
*559 PHY_33
*560 PHY_34
*561 PHY_35
*562 PHY_36
*563 PHY_37
*564 PHY_38
*565 PHY_39
*566 PHY_4
*567 PHY_40
*568 PHY_41
*569 PHY_42
*570 PHY_43
*571 PHY_44
*572 PHY_45
*573 PHY_5
*574 PHY_6
*575 PHY_7
*576 PHY_8
*577 PHY_9
*578 TAP_46
*579 TAP_47
*580 TAP_48
*581 TAP_49
*582 TAP_50
*583 TAP_51
*584 TAP_52
*585 TAP_53
*586 TAP_54
*587 TAP_55
*588 TAP_56
*589 TAP_57
*590 TAP_58
*591 TAP_59
*592 TAP_60
*593 TAP_61
*594 TAP_62
*595 TAP_63
*596 TAP_64
*597 TAP_65
*598 TAP_66
*599 TAP_67
*600 TAP_68
*601 TAP_69
*602 TAP_70
*603 TAP_71
*604 TAP_72
*605 TAP_73
*606 TAP_74
*607 TAP_75
*608 TAP_76
*609 TAP_77
*610 TAP_78
*611 TAP_79
*612 TAP_80
*613 TAP_81
*614 TAP_82
*615 TAP_83
*616 TAP_84
*617 TAP_85
*618 TAP_86
*619 TAP_87
*620 TAP_88
*621 TAP_89
*622 TAP_90
*623 TAP_91
*624 TAP_92
*625 TAP_93
*626 TAP_94
*627 TAP_95
*628 _176_
*629 _177_
*630 _178_
*631 _179_
*632 _180_
*633 _181_
*634 _182_
*635 _183_
*636 _184_
*637 _185_
*638 _186_
*639 _187_
*640 _188_
*641 _189_
*642 _190_
*643 _191_
*644 _192_
*645 _193_
*646 _194_
*647 _195_
*648 _196_
*649 _197_
*650 _198_
*651 _199_
*652 _200_
*653 _201_
*654 _202_
*655 _203_
*656 _204_
*657 _205_
*658 _206_
*659 _207_
*660 _208_
*661 _209_
*662 _210_
*663 _211_
*664 _212_
*665 _213_
*666 _214_
*667 _215_
*668 _216_
*669 _217_
*670 _218_
*671 _219_
*672 _220_
*673 _221_
*674 _222_
*675 _223_
*676 _224_
*677 _225_
*678 _226_
*679 _227_
*680 _228_
*681 _229_
*682 _230_
*683 _231_
*684 _232_
*685 _233_
*686 _234_
*687 _235_
*688 _236_
*689 _237_
*690 _238_
*691 _239_
*692 _240_
*693 _241_
*694 _242_
*695 _243_
*696 _244_
*697 _245_
*698 _246_
*699 _247_
*700 _248_
*701 _249_
*702 _250_
*703 _251_
*704 _252_
*705 _253_
*706 _254_
*707 _255_
*708 _256_
*709 _257_
*710 _258_
*711 _259_
*712 _260_
*713 _261_
*714 _262_
*715 _263_
*716 _264_
*717 _265_
*718 _266_
*719 _267_
*720 _268_
*721 _269_
*722 _270_
*723 _271_
*724 _272_
*725 _273_
*726 _274_
*727 _275_
*728 _276_
*729 _277_
*730 _278_
*731 _279_
*732 _280_
*733 _281_
*734 _282_
*735 _283_
*736 _284_
*737 _285_
*738 _286_
*739 _287_
*740 _288_
*741 _289_
*742 _290_
*743 _291_
*744 _292_
*745 _293_
*746 _294_
*747 _295_
*748 _296_
*749 _297_
*750 _298_
*751 _299_
*752 _300_
*753 _301_
*754 _302_
*755 _303_
*756 _304_
*757 _305_
*758 _306_
*759 _307_
*760 _308_
*761 _309_
*762 _310_
*763 _311_
*764 _312_
*765 _313_
*766 _314_
*767 _315_
*768 _316_
*769 _317_
*770 _318_
*771 _319_
*772 _320_
*773 _321_
*774 _322_
*775 _323_
*776 _324_
*777 _325_
*778 _326_
*779 _327_
*780 _328_
*781 _329_
*782 _330_
*783 _331_
*784 _332_
*785 _333_
*786 _334_
*787 _335_
*788 _336_
*789 _337_
*790 _338_
*791 _339_
*792 _340_
*793 _341_
*794 _342_
*795 _343_
*796 _344_
*797 _345_
*798 _346_
*799 _347_
*800 _348_
*801 _349_
*802 _350_
*803 _351_
*804 _352_
*805 _353_
*806 _354_
*807 _355_
*808 _356_
*809 _357_
*810 _358_
*811 _359_
*812 _360_
*813 _361_
*814 _362_
*815 _363_
*816 _364_
*817 _365_
*818 _366_
*819 _367_
*820 _368_
*821 _369_
*822 _370_
*823 _371_
*824 _372_
*825 _373_
*826 _374_
*827 _375_
*828 _376_
*829 _377_
*830 _378_
*831 _379_
*832 _380_
*833 _381_
*834 _382_
*835 _383_
*836 _384_
*837 _385_
*838 _386_
*839 _387_
*840 _388_
*841 _389_
*842 _390_
*843 _391_
*844 _392_
*845 _393_
*846 _394_
*847 _395_
*848 _396_
*849 _397_
*850 _398_
*851 _399_
*852 _400_
*853 _401_
*854 clockp_buffer_0
*855 clockp_buffer_1
*856 ringosc\.dstage\[0\]\.id\.delaybuf0
*857 ringosc\.dstage\[0\]\.id\.delaybuf1
*858 ringosc\.dstage\[0\]\.id\.delayen0
*859 ringosc\.dstage\[0\]\.id\.delayen1
*860 ringosc\.dstage\[0\]\.id\.delayenb0
*861 ringosc\.dstage\[0\]\.id\.delayenb1
*862 ringosc\.dstage\[0\]\.id\.delayint0
*863 ringosc\.dstage\[10\]\.id\.delaybuf0
*864 ringosc\.dstage\[10\]\.id\.delaybuf1
*865 ringosc\.dstage\[10\]\.id\.delayen0
*866 ringosc\.dstage\[10\]\.id\.delayen1
*867 ringosc\.dstage\[10\]\.id\.delayenb0
*868 ringosc\.dstage\[10\]\.id\.delayenb1
*869 ringosc\.dstage\[10\]\.id\.delayint0
*870 ringosc\.dstage\[11\]\.id\.delaybuf0
*871 ringosc\.dstage\[11\]\.id\.delaybuf1
*872 ringosc\.dstage\[11\]\.id\.delayen0
*873 ringosc\.dstage\[11\]\.id\.delayen1
*874 ringosc\.dstage\[11\]\.id\.delayenb0
*875 ringosc\.dstage\[11\]\.id\.delayenb1
*876 ringosc\.dstage\[11\]\.id\.delayint0
*877 ringosc\.dstage\[1\]\.id\.delaybuf0
*878 ringosc\.dstage\[1\]\.id\.delaybuf1
*879 ringosc\.dstage\[1\]\.id\.delayen0
*880 ringosc\.dstage\[1\]\.id\.delayen1
*881 ringosc\.dstage\[1\]\.id\.delayenb0
*882 ringosc\.dstage\[1\]\.id\.delayenb1
*883 ringosc\.dstage\[1\]\.id\.delayint0
*884 ringosc\.dstage\[2\]\.id\.delaybuf0
*885 ringosc\.dstage\[2\]\.id\.delaybuf1
*886 ringosc\.dstage\[2\]\.id\.delayen0
*887 ringosc\.dstage\[2\]\.id\.delayen1
*888 ringosc\.dstage\[2\]\.id\.delayenb0
*889 ringosc\.dstage\[2\]\.id\.delayenb1
*890 ringosc\.dstage\[2\]\.id\.delayint0
*891 ringosc\.dstage\[3\]\.id\.delaybuf0
*892 ringosc\.dstage\[3\]\.id\.delaybuf1
*893 ringosc\.dstage\[3\]\.id\.delayen0
*894 ringosc\.dstage\[3\]\.id\.delayen1
*895 ringosc\.dstage\[3\]\.id\.delayenb0
*896 ringosc\.dstage\[3\]\.id\.delayenb1
*897 ringosc\.dstage\[3\]\.id\.delayint0
*898 ringosc\.dstage\[4\]\.id\.delaybuf0
*899 ringosc\.dstage\[4\]\.id\.delaybuf1
*900 ringosc\.dstage\[4\]\.id\.delayen0
*901 ringosc\.dstage\[4\]\.id\.delayen1
*902 ringosc\.dstage\[4\]\.id\.delayenb0
*903 ringosc\.dstage\[4\]\.id\.delayenb1
*904 ringosc\.dstage\[4\]\.id\.delayint0
*905 ringosc\.dstage\[5\]\.id\.delaybuf0
*906 ringosc\.dstage\[5\]\.id\.delaybuf1
*907 ringosc\.dstage\[5\]\.id\.delayen0
*908 ringosc\.dstage\[5\]\.id\.delayen1
*909 ringosc\.dstage\[5\]\.id\.delayenb0
*910 ringosc\.dstage\[5\]\.id\.delayenb1
*911 ringosc\.dstage\[5\]\.id\.delayint0
*912 ringosc\.dstage\[6\]\.id\.delaybuf0
*913 ringosc\.dstage\[6\]\.id\.delaybuf1
*914 ringosc\.dstage\[6\]\.id\.delayen0
*915 ringosc\.dstage\[6\]\.id\.delayen1
*916 ringosc\.dstage\[6\]\.id\.delayenb0
*917 ringosc\.dstage\[6\]\.id\.delayenb1
*918 ringosc\.dstage\[6\]\.id\.delayint0
*919 ringosc\.dstage\[7\]\.id\.delaybuf0
*920 ringosc\.dstage\[7\]\.id\.delaybuf1
*921 ringosc\.dstage\[7\]\.id\.delayen0
*922 ringosc\.dstage\[7\]\.id\.delayen1
*923 ringosc\.dstage\[7\]\.id\.delayenb0
*924 ringosc\.dstage\[7\]\.id\.delayenb1
*925 ringosc\.dstage\[7\]\.id\.delayint0
*926 ringosc\.dstage\[8\]\.id\.delaybuf0
*927 ringosc\.dstage\[8\]\.id\.delaybuf1
*928 ringosc\.dstage\[8\]\.id\.delayen0
*929 ringosc\.dstage\[8\]\.id\.delayen1
*930 ringosc\.dstage\[8\]\.id\.delayenb0
*931 ringosc\.dstage\[8\]\.id\.delayenb1
*932 ringosc\.dstage\[8\]\.id\.delayint0
*933 ringosc\.dstage\[9\]\.id\.delaybuf0
*934 ringosc\.dstage\[9\]\.id\.delaybuf1
*935 ringosc\.dstage\[9\]\.id\.delayen0
*936 ringosc\.dstage\[9\]\.id\.delayen1
*937 ringosc\.dstage\[9\]\.id\.delayenb0
*938 ringosc\.dstage\[9\]\.id\.delayenb1
*939 ringosc\.dstage\[9\]\.id\.delayint0
*940 ringosc\.ibufp00
*941 ringosc\.ibufp01
*942 ringosc\.ibufp10
*943 ringosc\.ibufp11
*944 ringosc\.iss\.const1
*945 ringosc\.iss\.ctrlen0
*946 ringosc\.iss\.delaybuf0
*947 ringosc\.iss\.delayen0
*948 ringosc\.iss\.delayen1
*949 ringosc\.iss\.delayenb0
*950 ringosc\.iss\.delayenb1
*951 ringosc\.iss\.delayint0
*952 ringosc\.iss\.reseten0

*PORTS
clockp[0] O
clockp[1] O
dco I
div[0] I
div[1] I
div[2] I
div[3] I
div[4] I
enable I
ext_trim[0] I
ext_trim[10] I
ext_trim[11] I
ext_trim[12] I
ext_trim[13] I
ext_trim[14] I
ext_trim[15] I
ext_trim[16] I
ext_trim[17] I
ext_trim[18] I
ext_trim[19] I
ext_trim[1] I
ext_trim[20] I
ext_trim[21] I
ext_trim[22] I
ext_trim[23] I
ext_trim[24] I
ext_trim[25] I
ext_trim[2] I
ext_trim[3] I
ext_trim[4] I
ext_trim[5] I
ext_trim[6] I
ext_trim[7] I
ext_trim[8] I
ext_trim[9] I
osc I
resetb I

*D_NET *3 0.00090088
*CONN
*P clockp[0] O
*I *854:X O *D sky130_fd_sc_hd__clkbuf_16
*CAP
1 clockp[0] 0.000197482
2 *854:X 0.000252958
3 *3:6 0.00045044
4 clockp[0] clockp[1] 0
*RES
1 *854:X *3:6 42.8989 
2 *3:6 clockp[0] 8.75787 
*END

*D_NET *4 0.00690646
*CONN
*P clockp[1] O
*I *855:X O *D sky130_fd_sc_hd__clkbuf_16
*CAP
1 clockp[1] 0.00210838
2 *855:X 0
3 *4:5 0.00210838
4 clockp[1] *349:DIODE 0.000116729
5 clockp[1] *667:A1 0
6 clockp[1] *5:10 4.73652e-05
7 clockp[1] *5:611 0
8 clockp[1] *6:7 0
9 clockp[1] *6:40 4.84045e-05
10 clockp[1] *7:29 0
11 clockp[1] *9:38 2.24973e-05
12 clockp[1] *9:60 6.68107e-05
13 clockp[1] *32:27 0
14 clockp[1] *62:8 0.000368738
15 clockp[1] *78:8 5.561e-05
16 clockp[1] *81:8 0.000349505
17 clockp[1] *88:97 0
18 clockp[1] *92:26 0
19 clockp[1] *93:6 8.41012e-05
20 clockp[1] *101:8 0.000166522
21 clockp[1] *103:6 0
22 clockp[1] *104:27 0
23 clockp[1] *105:31 5.01096e-05
24 clockp[1] *107:8 0
25 clockp[1] *109:14 0
26 clockp[1] *111:8 9.36174e-05
27 clockp[1] *113:12 0
28 clockp[1] *117:8 0.000580924
29 clockp[1] *120:18 0
30 clockp[1] *122:6 0.000183198
31 clockp[1] *129:10 0.000211329
32 clockp[1] *137:6 0
33 clockp[1] *221:63 0.000110922
34 clockp[1] *222:8 0.000133316
35 clockp[1] *333:255 0
36 clockp[0] clockp[1] 0
*RES
1 *855:X *4:5 38 
2 *4:5 clockp[1] 46.8094 
*END

*D_NET *5 0.0959305
*CONN
*P dco I
*I *349:DIODE I *D sky130_fd_sc_hd__diode_2
*I *358:DIODE I *D sky130_fd_sc_hd__diode_2
*I *747:A1 I *D sky130_fd_sc_hd__a21o_2
*I *752:A1 I *D sky130_fd_sc_hd__a21o_2
*I *356:DIODE I *D sky130_fd_sc_hd__diode_2
*I *754:A1 I *D sky130_fd_sc_hd__a21o_2
*I *362:DIODE I *D sky130_fd_sc_hd__diode_2
*I *374:DIODE I *D sky130_fd_sc_hd__diode_2
*I *375:DIODE I *D sky130_fd_sc_hd__diode_2
*I *765:B I *D sky130_fd_sc_hd__nand2b_2
*I *768:B2 I *D sky130_fd_sc_hd__a32o_2
*I *758:A1 I *D sky130_fd_sc_hd__a22o_2
*I *364:DIODE I *D sky130_fd_sc_hd__diode_2
*I *371:DIODE I *D sky130_fd_sc_hd__diode_2
*I *360:DIODE I *D sky130_fd_sc_hd__diode_2
*I *757:A1 I *D sky130_fd_sc_hd__a21o_2
*I *751:A1 I *D sky130_fd_sc_hd__a22o_2
*I *354:DIODE I *D sky130_fd_sc_hd__diode_2
*I *351:DIODE I *D sky130_fd_sc_hd__diode_2
*I *741:A2 I *D sky130_fd_sc_hd__a21o_2
*I *347:DIODE I *D sky130_fd_sc_hd__diode_2
*I *379:DIODE I *D sky130_fd_sc_hd__diode_2
*I *766:A1 I *D sky130_fd_sc_hd__o31a_2
*I *350:DIODE I *D sky130_fd_sc_hd__diode_2
*I *798:B2 I *D sky130_fd_sc_hd__a32o_2
*I *795:A1 I *D sky130_fd_sc_hd__a22o_2
*I *764:A1 I *D sky130_fd_sc_hd__a22o_2
*I *366:DIODE I *D sky130_fd_sc_hd__diode_2
*I *761:A1 I *D sky130_fd_sc_hd__a22o_2
*I *762:A1 I *D sky130_fd_sc_hd__a22o_2
*I *368:DIODE I *D sky130_fd_sc_hd__diode_2
*I *372:DIODE I *D sky130_fd_sc_hd__diode_2
*I *778:A1 I *D sky130_fd_sc_hd__a22o_2
*I *392:DIODE I *D sky130_fd_sc_hd__diode_2
*I *745:A_N I *D sky130_fd_sc_hd__and2b_2
*I *771:A1 I *D sky130_fd_sc_hd__a22o_2
*I *769:A1 I *D sky130_fd_sc_hd__a22o_2
*I *740:A I *D sky130_fd_sc_hd__nor2_2
*I *377:DIODE I *D sky130_fd_sc_hd__diode_2
*I *413:DIODE I *D sky130_fd_sc_hd__diode_2
*I *815:A I *D sky130_fd_sc_hd__nor2_2
*I *420:DIODE I *D sky130_fd_sc_hd__diode_2
*I *817:A I *D sky130_fd_sc_hd__nor2_2
*I *814:A I *D sky130_fd_sc_hd__nor2_2
*I *412:DIODE I *D sky130_fd_sc_hd__diode_2
*I *828:A I *D sky130_fd_sc_hd__nor2_2
*I *426:DIODE I *D sky130_fd_sc_hd__diode_2
*I *826:A I *D sky130_fd_sc_hd__nor2_2
*I *425:DIODE I *D sky130_fd_sc_hd__diode_2
*I *827:A I *D sky130_fd_sc_hd__nor2_2
*I *809:A I *D sky130_fd_sc_hd__nor2_2
*I *813:A I *D sky130_fd_sc_hd__nor2_2
*I *411:DIODE I *D sky130_fd_sc_hd__diode_2
*I *400:DIODE I *D sky130_fd_sc_hd__diode_2
*I *805:A1 I *D sky130_fd_sc_hd__a21o_2
*I *816:A I *D sky130_fd_sc_hd__nor2_2
*I *821:A I *D sky130_fd_sc_hd__nor2_2
*I *419:DIODE I *D sky130_fd_sc_hd__diode_2
*I *414:DIODE I *D sky130_fd_sc_hd__diode_2
*I *416:DIODE I *D sky130_fd_sc_hd__diode_2
*I *818:A I *D sky130_fd_sc_hd__nor2_2
*I *418:DIODE I *D sky130_fd_sc_hd__diode_2
*I *417:DIODE I *D sky130_fd_sc_hd__diode_2
*I *820:A I *D sky130_fd_sc_hd__nor2_2
*I *819:A I *D sky130_fd_sc_hd__nor2_2
*I *353:DIODE I *D sky130_fd_sc_hd__diode_2
*I *800:A1 I *D sky130_fd_sc_hd__a22o_2
*I *383:DIODE I *D sky130_fd_sc_hd__diode_2
*I *387:DIODE I *D sky130_fd_sc_hd__diode_2
*I *789:A1 I *D sky130_fd_sc_hd__a21o_2
*I *389:DIODE I *D sky130_fd_sc_hd__diode_2
*I *793:B2 I *D sky130_fd_sc_hd__a32o_2
*I *386:DIODE I *D sky130_fd_sc_hd__diode_2
*I *396:DIODE I *D sky130_fd_sc_hd__diode_2
*I *393:DIODE I *D sky130_fd_sc_hd__diode_2
*I *794:A1 I *D sky130_fd_sc_hd__a22o_2
*I *802:B2 I *D sky130_fd_sc_hd__a32o_2
*I *748:B I *D sky130_fd_sc_hd__nor2_2
*I *786:B2 I *D sky130_fd_sc_hd__a32o_2
*I *382:DIODE I *D sky130_fd_sc_hd__diode_2
*I *803:A1 I *D sky130_fd_sc_hd__a21o_2
*I *806:A1 I *D sky130_fd_sc_hd__a22o_2
*I *402:DIODE I *D sky130_fd_sc_hd__diode_2
*I *397:DIODE I *D sky130_fd_sc_hd__diode_2
*I *804:A_N I *D sky130_fd_sc_hd__and3b_2
*I *399:DIODE I *D sky130_fd_sc_hd__diode_2
*I *422:DIODE I *D sky130_fd_sc_hd__diode_2
*I *408:DIODE I *D sky130_fd_sc_hd__diode_2
*I *824:A I *D sky130_fd_sc_hd__nor2_2
*I *810:A I *D sky130_fd_sc_hd__nor2_2
*I *825:A I *D sky130_fd_sc_hd__nor2_2
*I *423:DIODE I *D sky130_fd_sc_hd__diode_2
*I *823:A I *D sky130_fd_sc_hd__nor2_2
*I *421:DIODE I *D sky130_fd_sc_hd__diode_2
*I *808:A I *D sky130_fd_sc_hd__nor2_2
*I *407:DIODE I *D sky130_fd_sc_hd__diode_2
*I *424:DIODE I *D sky130_fd_sc_hd__diode_2
*I *406:DIODE I *D sky130_fd_sc_hd__diode_2
*I *410:DIODE I *D sky130_fd_sc_hd__diode_2
*I *812:A I *D sky130_fd_sc_hd__nor2_2
*I *409:DIODE I *D sky130_fd_sc_hd__diode_2
*I *811:A I *D sky130_fd_sc_hd__nor2_2
*I *415:DIODE I *D sky130_fd_sc_hd__diode_2
*I *822:A I *D sky130_fd_sc_hd__nor2_2
*I *427:DIODE I *D sky130_fd_sc_hd__diode_2
*I *829:A I *D sky130_fd_sc_hd__nor2_2
*I *428:DIODE I *D sky130_fd_sc_hd__diode_2
*I *830:A I *D sky130_fd_sc_hd__nor2_2
*CAP
1 dco 0.000687937
2 *349:DIODE 0.000232828
3 *358:DIODE 0
4 *747:A1 0
5 *752:A1 0
6 *356:DIODE 0
7 *754:A1 0.000130407
8 *362:DIODE 0
9 *374:DIODE 0
10 *375:DIODE 3.65899e-05
11 *765:B 0.000190985
12 *768:B2 0.000181668
13 *758:A1 0
14 *364:DIODE 0
15 *371:DIODE 0
16 *360:DIODE 0
17 *757:A1 2.80332e-05
18 *751:A1 3.15879e-05
19 *354:DIODE 0
20 *351:DIODE 7.34001e-05
21 *741:A2 6.33264e-05
22 *347:DIODE 7.80445e-05
23 *379:DIODE 5.44013e-05
24 *766:A1 0
25 *350:DIODE 0
26 *798:B2 2.51243e-05
27 *795:A1 0
28 *764:A1 0
29 *366:DIODE 0.000154933
30 *761:A1 0
31 *762:A1 3.29959e-05
32 *368:DIODE 0
33 *372:DIODE 4.30532e-05
34 *778:A1 0
35 *392:DIODE 0
36 *745:A_N 4.31765e-05
37 *771:A1 0.000111072
38 *769:A1 0.000130055
39 *740:A 4.4423e-05
40 *377:DIODE 0
41 *413:DIODE 1.11305e-05
42 *815:A 0
43 *420:DIODE 0
44 *817:A 9.25997e-05
45 *814:A 4.1499e-05
46 *412:DIODE 0
47 *828:A 3.88811e-05
48 *426:DIODE 0
49 *826:A 0.000572864
50 *425:DIODE 8.85919e-05
51 *827:A 0
52 *809:A 0.00023479
53 *813:A 0
54 *411:DIODE 0
55 *400:DIODE 4.25695e-05
56 *805:A1 1.71051e-05
57 *816:A 0
58 *821:A 1.33174e-05
59 *419:DIODE 0
60 *414:DIODE 0
61 *416:DIODE 7.54981e-05
62 *818:A 3.93866e-05
63 *418:DIODE 0.000355294
64 *417:DIODE 0
65 *820:A 1.15278e-05
66 *819:A 2.0995e-05
67 *353:DIODE 0
68 *800:A1 6.91266e-06
69 *383:DIODE 0
70 *387:DIODE 0
71 *789:A1 0
72 *389:DIODE 9.12897e-05
73 *793:B2 2.13845e-05
74 *386:DIODE 0
75 *396:DIODE 0
76 *393:DIODE 0
77 *794:A1 0
78 *802:B2 5.71186e-05
79 *748:B 0
80 *786:B2 0.000147958
81 *382:DIODE 0.000308759
82 *803:A1 0.000217272
83 *806:A1 7.10958e-05
84 *402:DIODE 4.66415e-05
85 *397:DIODE 4.99221e-05
86 *804:A_N 2.34823e-05
87 *399:DIODE 0
88 *422:DIODE 5.54173e-05
89 *408:DIODE 0
90 *824:A 1.05206e-05
91 *810:A 0
92 *825:A 3.40974e-05
93 *423:DIODE 0
94 *823:A 0
95 *421:DIODE 0.000824784
96 *808:A 2.0995e-05
97 *407:DIODE 0
98 *424:DIODE 0.000161446
99 *406:DIODE 0
100 *410:DIODE 0
101 *812:A 0.000127035
102 *409:DIODE 0
103 *811:A 0.000139528
104 *415:DIODE 3.09722e-05
105 *822:A 0
106 *427:DIODE 0
107 *829:A 0
108 *428:DIODE 0
109 *830:A 0
110 *5:1008 0.000394518
111 *5:1003 0.000526408
112 *5:1001 0.000495265
113 *5:971 0.000372653
114 *5:969 0.000361778
115 *5:965 0.000424033
116 *5:955 0.000176172
117 *5:949 0.000540576
118 *5:943 0.000535359
119 *5:935 0.000237518
120 *5:930 0.000165407
121 *5:928 0.000455248
122 *5:911 0.000222668
123 *5:904 0.000537909
124 *5:902 0.000333106
125 *5:894 0.000171934
126 *5:891 0.000443806
127 *5:888 0.000756706
128 *5:876 0.000901365
129 *5:844 0.000443279
130 *5:838 0.000814182
131 *5:817 0.000251469
132 *5:806 0.000323173
133 *5:803 0.000211491
134 *5:801 0.000577319
135 *5:796 0.000257703
136 *5:785 0.000164731
137 *5:780 0.000243795
138 *5:772 0.00010501
139 *5:761 0.000544096
140 *5:758 0.000673788
141 *5:749 0.000228292
142 *5:739 0.000227613
143 *5:731 0.000182539
144 *5:727 9.90639e-05
145 *5:726 0.000267549
146 *5:716 0.000210991
147 *5:714 0.000545928
148 *5:700 0.000847343
149 *5:688 2.19935e-05
150 *5:685 0.000563531
151 *5:621 0.000248019
152 *5:613 0.000464568
153 *5:611 0.00108724
154 *5:606 0.000418175
155 *5:604 0.000495258
156 *5:592 0.000447721
157 *5:590 0.000203125
158 *5:567 0.00030546
159 *5:561 0.000647382
160 *5:544 0.000281102
161 *5:534 0.000347177
162 *5:504 0.000321197
163 *5:487 0.000432267
164 *5:458 0.000777847
165 *5:446 0.000836356
166 *5:418 0.00026255
167 *5:409 0.000735923
168 *5:398 0.000601252
169 *5:397 0.000257952
170 *5:393 0.000503119
171 *5:384 0.000601491
172 *5:377 0.000172077
173 *5:371 0.000244367
174 *5:356 0.000301486
175 *5:351 0.000460347
176 *5:346 0.000665981
177 *5:331 0.000347012
178 *5:311 0.000733202
179 *5:307 0.00063623
180 *5:290 0.000555244
181 *5:281 0.000313518
182 *5:279 0.000449219
183 *5:266 0.000788907
184 *5:261 0.000704047
185 *5:259 0.000158452
186 *5:257 0.000290488
187 *5:252 0.000540985
188 *5:241 0.000204231
189 *5:235 0.000401821
190 *5:229 0.000432872
191 *5:227 0.000245809
192 *5:223 0.000260872
193 *5:222 0.000303374
194 *5:208 0.000209951
195 *5:196 3.15755e-05
196 *5:194 0.000263127
197 *5:191 0.000438883
198 *5:180 0.000339377
199 *5:175 0.000360349
200 *5:164 0.000296716
201 *5:154 0.000935446
202 *5:146 0.00049014
203 *5:142 0.000713082
204 *5:140 0.000510783
205 *5:129 0.0005024
206 *5:109 0.000214012
207 *5:108 0.000193268
208 *5:105 0.00108378
209 *5:88 0.00132115
210 *5:77 0.000501799
211 *5:72 0.000482005
212 *5:70 0.000673549
213 *5:66 0.000661744
214 *5:57 0.000148284
215 *5:51 0.00063048
216 *5:43 0.00090294
217 *5:37 0.00051313
218 *5:32 7.23003e-05
219 *5:27 0.00041415
220 *5:23 0.00052454
221 *5:21 3.83272e-05
222 *5:15 0.000177657
223 *5:10 0.00017274
224 *5:7 0.000954175
225 *347:DIODE *700:B 8.34394e-05
226 *349:DIODE *32:27 3.4276e-05
227 *366:DIODE *761:A2 0.00011716
228 *366:DIODE *913:A 0.000226306
229 *366:DIODE *36:22 8.54813e-05
230 *366:DIODE *180:49 4.89741e-05
231 *366:DIODE *301:7 0.000272377
232 *366:DIODE *307:30 0.000141954
233 *366:DIODE *312:13 0.000141052
234 *372:DIODE *178:36 5.5792e-05
235 *375:DIODE *908:TE 2.93845e-05
236 *379:DIODE *766:A3 0.00014196
237 *379:DIODE *334:8 2.02872e-05
238 *382:DIODE *692:B 2.02872e-05
239 *382:DIODE *779:B 5.3304e-05
240 *382:DIODE *86:13 9.41704e-05
241 *382:DIODE *130:21 3.18198e-05
242 *382:DIODE *130:39 0.000107672
243 *382:DIODE *142:11 2.05503e-05
244 *382:DIODE *236:43 1.23339e-05
245 *382:DIODE *236:67 1.1644e-05
246 *389:DIODE *788:C 0
247 *389:DIODE *19:18 1.16455e-05
248 *389:DIODE *207:12 5.92086e-05
249 *389:DIODE *311:21 3.62323e-05