*SPEF "ieee 1481-1999"
*DESIGN "digital_pll"
*DATE "11:11:11 Fri 11 11, 1111"
*VENDOR "OpenRCX"
*PROGRAM "Parallel Extraction"
*VERSION "1.0"
*DESIGN_FLOW "NAME_SCOPE LOCAL" "PIN_CAP NONE"
*DIVIDER /
*DELIMITER :
*BUS_DELIMITER []
*T_UNIT 1 NS
*C_UNIT 1 PF
*R_UNIT 1 OHM
*L_UNIT 1 HENRY

*NAME_MAP
*3 clockp[0]
*4 clockp[1]
*5 dco
*6 div[0]
*7 div[1]
*8 div[2]
*9 div[3]
*10 div[4]
*11 enable
*12 ext_trim[0]
*13 ext_trim[10]
*14 ext_trim[11]
*15 ext_trim[12]
*16 ext_trim[13]
*17 ext_trim[14]
*18 ext_trim[15]
*19 ext_trim[16]
*20 ext_trim[17]
*21 ext_trim[18]
*22 ext_trim[19]
*23 ext_trim[1]
*24 ext_trim[20]
*25 ext_trim[21]
*26 ext_trim[22]
*27 ext_trim[23]
*28 ext_trim[24]
*29 ext_trim[25]
*30 ext_trim[2]
*31 ext_trim[3]
*32 ext_trim[4]
*33 ext_trim[5]
*34 ext_trim[6]
*35 ext_trim[7]
*36 ext_trim[8]
*37 ext_trim[9]
*38 osc
*39 resetb
*40 _000_
*41 _001_
*42 _002_
*43 _003_
*44 _004_
*45 _005_
*46 _006_
*47 _007_
*48 _008_
*49 _009_
*50 _010_
*51 _011_
*52 _012_
*53 _013_
*54 _014_
*55 _015_
*56 _016_
*57 _017_
*58 _018_
*59 _019_
*60 _020_
*61 _021_
*62 _022_
*63 _023_
*64 _024_
*65 _025_
*66 _026_
*67 _027_
*68 _028_
*69 _029_
*70 _030_
*71 _031_
*72 _032_
*73 _033_
*74 _034_
*75 _035_
*76 _036_
*77 _037_
*78 _038_
*79 _039_
*80 _040_
*81 _041_
*82 _042_
*83 _043_
*84 _044_
*85 _045_
*86 _046_
*87 _047_
*88 _048_
*89 _049_
*90 _050_
*91 _051_
*92 _052_
*93 _053_
*94 _054_
*95 _055_
*96 _056_
*97 _057_
*98 _058_
*99 _059_
*100 _060_
*101 _061_
*102 _062_
*103 _063_
*104 _064_
*105 _065_
*106 _066_
*107 _067_
*108 _068_
*109 _069_
*110 _070_
*111 _071_
*112 _072_
*113 _073_
*114 _074_
*115 _075_
*116 _076_
*117 _077_
*118 _078_
*119 _079_
*120 _080_
*121 _081_
*122 _082_
*123 _083_
*124 _084_
*125 _085_
*126 _086_
*127 _087_
*128 _088_
*129 _089_
*130 _090_
*131 _091_
*132 _092_
*133 _093_
*134 _094_
*135 _095_
*136 _096_
*137 _097_
*138 _098_
*139 _099_
*140 _100_
*141 _101_
*142 _102_
*143 _103_
*144 _104_
*145 _105_
*146 _106_
*147 _107_
*148 _108_
*149 _109_
*150 _110_
*151 _111_
*152 _112_
*153 _113_
*154 _114_
*155 _115_
*156 _116_
*157 _117_
*158 _118_
*159 _119_
*160 _120_
*161 _121_
*162 _122_
*163 _123_
*164 _124_
*165 _125_
*166 _126_
*167 _127_
*168 _128_
*169 _129_
*170 _130_
*171 _131_
*172 _132_
*173 _133_
*174 _134_
*175 _135_
*176 _136_
*177 _137_
*178 _138_
*179 _139_
*180 _140_
*181 _141_
*182 _142_
*183 _143_
*184 _144_
*185 _145_
*186 _146_
*187 _147_
*188 _148_
*189 _149_
*190 _150_
*191 _151_
*192 _152_
*193 _153_
*194 _154_
*195 _155_
*196 _156_
*197 _157_
*198 _158_
*199 _159_
*200 _160_
*201 _161_
*202 _162_
*203 _163_
*204 _164_
*205 _165_
*206 _166_
*207 _167_
*208 _168_
*209 _169_
*210 _170_
*211 _171_
*212 _172_
*213 _173_
*214 _174_
*215 _175_
*216 _176_
*217 _177_
*218 _178_
*219 _179_
*220 _180_
*221 _181_
*222 _182_
*223 _183_
*224 _184_
*225 _185_
*226 _186_
*227 _187_
*228 _188_
*229 _189_
*230 _190_
*231 _191_
*232 _192_
*233 _193_
*234 _194_
*235 _195_
*236 _196_
*237 _197_
*238 _198_
*239 _199_
*240 _200_
*241 _201_
*242 _202_
*243 _203_
*244 _204_
*245 _205_
*246 _206_
*247 _207_
*248 _208_
*249 _209_
*250 _210_
*251 _211_
*252 _212_
*253 _213_
*254 pll_control\.clock
*255 pll_control\.count0\[0\]
*256 pll_control\.count0\[1\]
*257 pll_control\.count0\[2\]
*258 pll_control\.count0\[3\]
*259 pll_control\.count0\[4\]
*260 pll_control\.count1\[0\]
*261 pll_control\.count1\[1\]
*262 pll_control\.count1\[2\]
*263 pll_control\.count1\[3\]
*264 pll_control\.count1\[4\]
*265 pll_control\.oscbuf\[0\]
*266 pll_control\.oscbuf\[1\]
*267 pll_control\.oscbuf\[2\]
*268 pll_control\.prep\[0\]
*269 pll_control\.prep\[1\]
*270 pll_control\.prep\[2\]
*271 pll_control\.tint\[0\]
*272 pll_control\.tint\[1\]
*273 pll_control\.tint\[2\]
*274 pll_control\.tint\[3\]
*275 pll_control\.tint\[4\]
*276 pll_control\.tval\[0\]
*277 pll_control\.tval\[1\]
*278 ringosc\.c\[0\]
*279 ringosc\.c\[1\]
*280 ringosc\.clockp\[1\]
*281 ringosc\.dstage\[0\]\.id\.d0
*282 ringosc\.dstage\[0\]\.id\.d1
*283 ringosc\.dstage\[0\]\.id\.d2
*284 ringosc\.dstage\[0\]\.id\.in
*285 ringosc\.dstage\[0\]\.id\.out
*286 ringosc\.dstage\[0\]\.id\.trim\[0\]
*287 ringosc\.dstage\[0\]\.id\.trim\[1\]
*288 ringosc\.dstage\[0\]\.id\.ts
*289 ringosc\.dstage\[10\]\.id\.d0
*290 ringosc\.dstage\[10\]\.id\.d1
*291 ringosc\.dstage\[10\]\.id\.d2
*292 ringosc\.dstage\[10\]\.id\.in
*293 ringosc\.dstage\[10\]\.id\.out
*294 ringosc\.dstage\[10\]\.id\.trim\[0\]
*295 ringosc\.dstage\[10\]\.id\.trim\[1\]
*296 ringosc\.dstage\[10\]\.id\.ts
*297 ringosc\.dstage\[11\]\.id\.d0
*298 ringosc\.dstage\[11\]\.id\.d1
*299 ringosc\.dstage\[11\]\.id\.d2
*300 ringosc\.dstage\[11\]\.id\.out
*301 ringosc\.dstage\[11\]\.id\.trim\[0\]
*302 ringosc\.dstage\[11\]\.id\.trim\[1\]
*303 ringosc\.dstage\[11\]\.id\.ts
*304 ringosc\.dstage\[1\]\.id\.d0
*305 ringosc\.dstage\[1\]\.id\.d1
*306 ringosc\.dstage\[1\]\.id\.d2
*307 ringosc\.dstage\[1\]\.id\.out
*308 ringosc\.dstage\[1\]\.id\.trim\[0\]
*309 ringosc\.dstage\[1\]\.id\.trim\[1\]
*310 ringosc\.dstage\[1\]\.id\.ts
*311 ringosc\.dstage\[2\]\.id\.d0
*312 ringosc\.dstage\[2\]\.id\.d1
*313 ringosc\.dstage\[2\]\.id\.d2
*314 ringosc\.dstage\[2\]\.id\.out
*315 ringosc\.dstage\[2\]\.id\.trim\[0\]
*316 ringosc\.dstage\[2\]\.id\.trim\[1\]
*317 ringosc\.dstage\[2\]\.id\.ts
*318 ringosc\.dstage\[3\]\.id\.d0
*319 ringosc\.dstage\[3\]\.id\.d1
*320 ringosc\.dstage\[3\]\.id\.d2
*321 ringosc\.dstage\[3\]\.id\.out
*322 ringosc\.dstage\[3\]\.id\.trim\[0\]
*323 ringosc\.dstage\[3\]\.id\.trim\[1\]
*324 ringosc\.dstage\[3\]\.id\.ts
*325 ringosc\.dstage\[4\]\.id\.d0
*326 ringosc\.dstage\[4\]\.id\.d1
*327 ringosc\.dstage\[4\]\.id\.d2
*328 ringosc\.dstage\[4\]\.id\.out
*329 ringosc\.dstage\[4\]\.id\.trim\[0\]
*330 ringosc\.dstage\[4\]\.id\.trim\[1\]
*331 ringosc\.dstage\[4\]\.id\.ts
*332 ringosc\.dstage\[5\]\.id\.d0
*333 ringosc\.dstage\[5\]\.id\.d1
*334 ringosc\.dstage\[5\]\.id\.d2
*335 ringosc\.dstage\[5\]\.id\.out
*336 ringosc\.dstage\[5\]\.id\.trim\[0\]
*337 ringosc\.dstage\[5\]\.id\.trim\[1\]
*338 ringosc\.dstage\[5\]\.id\.ts
*339 ringosc\.dstage\[6\]\.id\.d0
*340 ringosc\.dstage\[6\]\.id\.d1
*341 ringosc\.dstage\[6\]\.id\.d2
*342 ringosc\.dstage\[6\]\.id\.out
*343 ringosc\.dstage\[6\]\.id\.trim\[0\]
*344 ringosc\.dstage\[6\]\.id\.trim\[1\]
*345 ringosc\.dstage\[6\]\.id\.ts
*346 ringosc\.dstage\[7\]\.id\.d0
*347 ringosc\.dstage\[7\]\.id\.d1
*348 ringosc\.dstage\[7\]\.id\.d2
*349 ringosc\.dstage\[7\]\.id\.out
*350 ringosc\.dstage\[7\]\.id\.trim\[0\]
*351 ringosc\.dstage\[7\]\.id\.trim\[1\]
*352 ringosc\.dstage\[7\]\.id\.ts
*353 ringosc\.dstage\[8\]\.id\.d0
*354 ringosc\.dstage\[8\]\.id\.d1
*355 ringosc\.dstage\[8\]\.id\.d2
*356 ringosc\.dstage\[8\]\.id\.out
*357 ringosc\.dstage\[8\]\.id\.trim\[0\]
*358 ringosc\.dstage\[8\]\.id\.trim\[1\]
*359 ringosc\.dstage\[8\]\.id\.ts
*360 ringosc\.dstage\[9\]\.id\.d0
*361 ringosc\.dstage\[9\]\.id\.d1
*362 ringosc\.dstage\[9\]\.id\.d2
*363 ringosc\.dstage\[9\]\.id\.trim\[0\]
*364 ringosc\.dstage\[9\]\.id\.trim\[1\]
*365 ringosc\.dstage\[9\]\.id\.ts
*366 ringosc\.iss\.ctrl0
*367 ringosc\.iss\.d0
*368 ringosc\.iss\.d1
*369 ringosc\.iss\.d2
*370 ringosc\.iss\.one
*371 ringosc\.iss\.reset
*372 ringosc\.iss\.trim\[0\]
*373 ringosc\.iss\.trim\[1\]
*374 ANTENNA__243__A
*375 ANTENNA__244__A
*376 ANTENNA__252__A
*377 ANTENNA__257__A_N
*378 ANTENNA__258__A
*379 ANTENNA__260__A1
*380 ANTENNA__266__A
*381 ANTENNA__267__A1
*382 ANTENNA__270__A1
*383 ANTENNA__287__B1
*384 ANTENNA__289__A1
*385 ANTENNA__348__A
*386 ANTENNA__349__A
*387 ANTENNA__350__A
*388 ANTENNA__358__A
*389 ANTENNA__360__A2
*390 ANTENNA__361__B
*391 ANTENNA__363__A2
*392 ANTENNA__364__A2
*393 ANTENNA__369__A2
*394 ANTENNA__373__A2
*395 ANTENNA__374__B1
*396 ANTENNA__375__A2
*397 ANTENNA__378__A2
*398 ANTENNA__379__A
*399 ANTENNA__380__A2
*400 ANTENNA__383__A2
*401 ANTENNA__384__A_N
*402 ANTENNA__387__B1
*403 ANTENNA__389__A2
*404 ANTENNA__392__A2
*405 ANTENNA__396__A2
*406 ANTENNA__399__A2
*407 ANTENNA__404__A2
*408 ANTENNA__409__B1
*409 ANTENNA__410__A2
*410 ANTENNA__411__A2
*411 ANTENNA__417__B1
*412 ANTENNA__419__A2
*413 ANTENNA__421__B1
*414 ANTENNA__422__A2
*415 ANTENNA__423__A2
*416 ANTENNA__424__A2
*417 ANTENNA__425__A
*418 ANTENNA__425__B
*419 ANTENNA__447__A
*420 ANTENNA__470__D
*421 FILLER_0_111
*422 FILLER_0_115
*423 FILLER_0_135
*424 FILLER_0_35
*425 FILLER_0_83
*426 FILLER_10_126
*427 FILLER_10_27
*428 FILLER_11_102
*429 FILLER_11_3
*430 FILLER_12_116
*431 FILLER_12_122
*432 FILLER_12_37
*433 FILLER_12_69
*434 FILLER_12_83
*435 FILLER_12_85
*436 FILLER_14_23
*437 FILLER_14_90
*438 FILLER_15_122
*439 FILLER_16_39
*440 FILLER_16_85
*441 FILLER_17_28
*442 FILLER_17_87
*443 FILLER_17_96
*444 FILLER_18_65
*445 FILLER_18_95
*446 FILLER_19_123
*447 FILLER_19_135
*448 FILLER_19_48
*449 FILLER_19_57
*450 FILLER_1_111
*451 FILLER_1_134
*452 FILLER_1_3
*453 FILLER_20_64
*454 FILLER_20_85
*455 FILLER_21_135
*456 FILLER_21_3
*457 FILLER_21_55
*458 FILLER_21_68
*459 FILLER_22_111
*460 FILLER_22_113
*461 FILLER_22_57
*462 FILLER_22_65
*463 FILLER_22_85
*464 FILLER_2_108
*465 FILLER_2_76
*466 FILLER_3_134
*467 FILLER_3_3
*468 FILLER_4_12
*469 FILLER_4_134
*470 FILLER_4_29
*471 FILLER_4_55
*472 FILLER_4_92
*473 FILLER_5_101
*474 FILLER_5_135
*475 FILLER_6_3
*476 FILLER_6_85
*477 FILLER_6_90
*478 FILLER_7_105
*479 FILLER_7_21
*480 FILLER_7_3
*481 FILLER_7_64
*482 FILLER_7_71
*483 FILLER_7_97
*484 FILLER_8_41
*485 FILLER_8_83
*486 FILLER_8_89
*487 FILLER_9_102
*488 FILLER_9_45
*489 FILLER_9_88
*490 PHY_0
*491 PHY_1
*492 PHY_10
*493 PHY_11
*494 PHY_12
*495 PHY_13
*496 PHY_14
*497 PHY_15
*498 PHY_16
*499 PHY_17
*500 PHY_18
*501 PHY_19
*502 PHY_2
*503 PHY_20
*504 PHY_21
*505 PHY_22
*506 PHY_23
*507 PHY_24
*508 PHY_25
*509 PHY_26
*510 PHY_27
*511 PHY_28
*512 PHY_29
*513 PHY_3
*514 PHY_30
*515 PHY_31
*516 PHY_32
*517 PHY_33
*518 PHY_34
*519 PHY_35
*520 PHY_36
*521 PHY_37
*522 PHY_38
*523 PHY_39
*524 PHY_4
*525 PHY_40
*526 PHY_41
*527 PHY_42
*528 PHY_43
*529 PHY_44
*530 PHY_45
*531 PHY_5
*532 PHY_6
*533 PHY_7
*534 PHY_8
*535 PHY_9
*536 TAP_46
*537 TAP_47
*538 TAP_48
*539 TAP_49
*540 TAP_50
*541 TAP_51
*542 TAP_52
*543 TAP_53
*544 TAP_54
*545 TAP_55
*546 TAP_56
*547 TAP_57
*548 TAP_58
*549 TAP_59
*550 TAP_60
*551 TAP_61
*552 TAP_62
*553 TAP_63
*554 TAP_64
*555 TAP_65
*556 TAP_66
*557 TAP_67
*558 TAP_68
*559 TAP_69
*560 TAP_70
*561 TAP_71
*562 TAP_72
*563 TAP_73
*564 TAP_74
*565 TAP_75
*566 TAP_76
*567 TAP_77
*568 TAP_78
*569 TAP_79
*570 TAP_80
*571 TAP_81
*572 TAP_82
*573 TAP_83
*574 TAP_84
*575 TAP_85
*576 TAP_86
*577 TAP_87
*578 TAP_88
*579 TAP_89
*580 TAP_90
*581 TAP_91
*582 TAP_92
*583 TAP_93
*584 TAP_94
*585 TAP_95
*586 _214_
*587 _215_
*588 _216_
*589 _217_
*590 _218_
*591 _219_
*592 _220_
*593 _221_
*594 _222_
*595 _223_
*596 _224_
*597 _225_
*598 _226_
*599 _227_
*600 _228_
*601 _229_
*602 _230_
*603 _231_
*604 _232_
*605 _233_
*606 _234_
*607 _235_
*608 _236_
*609 _237_
*610 _238_
*611 _239_
*612 _240_
*613 _241_
*614 _242_
*615 _243_
*616 _244_
*617 _245_
*618 _246_
*619 _247_
*620 _248_
*621 _249_
*622 _250_
*623 _251_
*624 _252_
*625 _253_
*626 _254_
*627 _255_
*628 _256_
*629 _257_
*630 _258_
*631 _259_
*632 _260_
*633 _261_
*634 _262_
*635 _263_
*636 _264_
*637 _265_
*638 _266_
*639 _267_
*640 _268_
*641 _269_
*642 _270_
*643 _271_
*644 _272_
*645 _273_
*646 _274_
*647 _275_
*648 _276_
*649 _277_
*650 _278_
*651 _279_
*652 _280_
*653 _281_
*654 _282_
*655 _283_
*656 _284_
*657 _285_
*658 _286_
*659 _287_
*660 _288_
*661 _289_
*662 _290_
*663 _291_
*664 _292_
*665 _293_
*666 _294_
*667 _295_
*668 _296_
*669 _297_
*670 _298_
*671 _299_
*672 _300_
*673 _301_
*674 _302_
*675 _303_
*676 _304_
*677 _305_
*678 _306_
*679 _307_
*680 _308_
*681 _309_
*682 _310_
*683 _311_
*684 _312_
*685 _313_
*686 _314_
*687 _315_
*688 _316_
*689 _317_
*690 _318_
*691 _319_
*692 _320_
*693 _321_
*694 _322_
*695 _323_
*696 _324_
*697 _325_
*698 _326_
*699 _327_
*700 _328_
*701 _329_
*702 _330_
*703 _331_
*704 _332_
*705 _333_
*706 _334_
*707 _335_
*708 _336_
*709 _337_
*710 _338_
*711 _339_
*712 _340_
*713 _341_
*714 _342_
*715 _343_
*716 _344_
*717 _345_
*718 _346_
*719 _347_
*720 _348_
*721 _349_
*722 _350_
*723 _351_
*724 _352_
*725 _353_
*726 _354_
*727 _355_
*728 _356_
*729 _357_
*730 _358_
*731 _359_
*732 _360_
*733 _361_
*734 _362_
*735 _363_
*736 _364_
*737 _365_
*738 _366_
*739 _367_
*740 _368_
*741 _369_
*742 _370_
*743 _371_
*744 _372_
*745 _373_
*746 _374_
*747 _375_
*748 _376_
*749 _377_
*750 _378_
*751 _379_
*752 _380_
*753 _381_
*754 _382_
*755 _383_
*756 _384_
*757 _385_
*758 _386_
*759 _387_
*760 _388_
*761 _389_
*762 _390_
*763 _391_
*764 _392_
*765 _393_
*766 _394_
*767 _395_
*768 _396_
*769 _397_
*770 _398_
*771 _399_
*772 _400_
*773 _401_
*774 _402_
*775 _403_
*776 _404_
*777 _405_
*778 _406_
*779 _407_
*780 _408_
*781 _409_
*782 _410_
*783 _411_
*784 _412_
*785 _413_
*786 _414_
*787 _415_
*788 _416_
*789 _417_
*790 _418_
*791 _419_
*792 _420_
*793 _421_
*794 _422_
*795 _423_
*796 _424_
*797 _425_
*798 _426_
*799 _427_
*800 _428_
*801 _429_
*802 _430_
*803 _431_
*804 _432_
*805 _433_
*806 _434_
*807 _435_
*808 _436_
*809 _437_
*810 _438_
*811 _439_
*812 _440_
*813 _441_
*814 _442_
*815 _443_
*816 _444_
*817 _445_
*818 _446_
*819 _447_
*820 _448_
*821 _449_
*822 _450_
*823 _451_
*824 _452_
*825 _453_
*826 _454_
*827 _455_
*828 _456_
*829 _457_
*830 _458_
*831 _459_
*832 _460_
*833 _461_
*834 _462_
*835 _463_
*836 _464_
*837 _465_
*838 _466_
*839 _467_
*840 _468_
*841 _469_
*842 _470_
*843 _471_
*844 _472_
*845 _473_
*846 _474_
*847 _475_
*848 _476_
*849 _477_
*850 clockp_buffer_0
*851 clockp_buffer_1
*852 ringosc\.dstage\[0\]\.id\.delaybuf0
*853 ringosc\.dstage\[0\]\.id\.delaybuf1
*854 ringosc\.dstage\[0\]\.id\.delayen0
*855 ringosc\.dstage\[0\]\.id\.delayen1
*856 ringosc\.dstage\[0\]\.id\.delayenb0
*857 ringosc\.dstage\[0\]\.id\.delayenb1
*858 ringosc\.dstage\[0\]\.id\.delayint0
*859 ringosc\.dstage\[10\]\.id\.delaybuf0
*860 ringosc\.dstage\[10\]\.id\.delaybuf1
*861 ringosc\.dstage\[10\]\.id\.delayen0
*862 ringosc\.dstage\[10\]\.id\.delayen1
*863 ringosc\.dstage\[10\]\.id\.delayenb0
*864 ringosc\.dstage\[10\]\.id\.delayenb1
*865 ringosc\.dstage\[10\]\.id\.delayint0
*866 ringosc\.dstage\[11\]\.id\.delaybuf0
*867 ringosc\.dstage\[11\]\.id\.delaybuf1
*868 ringosc\.dstage\[11\]\.id\.delayen0
*869 ringosc\.dstage\[11\]\.id\.delayen1
*870 ringosc\.dstage\[11\]\.id\.delayenb0
*871 ringosc\.dstage\[11\]\.id\.delayenb1
*872 ringosc\.dstage\[11\]\.id\.delayint0
*873 ringosc\.dstage\[1\]\.id\.delaybuf0
*874 ringosc\.dstage\[1\]\.id\.delaybuf1
*875 ringosc\.dstage\[1\]\.id\.delayen0
*876 ringosc\.dstage\[1\]\.id\.delayen1
*877 ringosc\.dstage\[1\]\.id\.delayenb0
*878 ringosc\.dstage\[1\]\.id\.delayenb1
*879 ringosc\.dstage\[1\]\.id\.delayint0
*880 ringosc\.dstage\[2\]\.id\.delaybuf0
*881 ringosc\.dstage\[2\]\.id\.delaybuf1
*882 ringosc\.dstage\[2\]\.id\.delayen0
*883 ringosc\.dstage\[2\]\.id\.delayen1
*884 ringosc\.dstage\[2\]\.id\.delayenb0
*885 ringosc\.dstage\[2\]\.id\.delayenb1
*886 ringosc\.dstage\[2\]\.id\.delayint0
*887 ringosc\.dstage\[3\]\.id\.delaybuf0
*888 ringosc\.dstage\[3\]\.id\.delaybuf1
*889 ringosc\.dstage\[3\]\.id\.delayen0
*890 ringosc\.dstage\[3\]\.id\.delayen1
*891 ringosc\.dstage\[3\]\.id\.delayenb0
*892 ringosc\.dstage\[3\]\.id\.delayenb1
*893 ringosc\.dstage\[3\]\.id\.delayint0
*894 ringosc\.dstage\[4\]\.id\.delaybuf0
*895 ringosc\.dstage\[4\]\.id\.delaybuf1
*896 ringosc\.dstage\[4\]\.id\.delayen0
*897 ringosc\.dstage\[4\]\.id\.delayen1
*898 ringosc\.dstage\[4\]\.id\.delayenb0
*899 ringosc\.dstage\[4\]\.id\.delayenb1
*900 ringosc\.dstage\[4\]\.id\.delayint0
*901 ringosc\.dstage\[5\]\.id\.delaybuf0
*902 ringosc\.dstage\[5\]\.id\.delaybuf1
*903 ringosc\.dstage\[5\]\.id\.delayen0
*904 ringosc\.dstage\[5\]\.id\.delayen1
*905 ringosc\.dstage\[5\]\.id\.delayenb0
*906 ringosc\.dstage\[5\]\.id\.delayenb1
*907 ringosc\.dstage\[5\]\.id\.delayint0
*908 ringosc\.dstage\[6\]\.id\.delaybuf0
*909 ringosc\.dstage\[6\]\.id\.delaybuf1
*910 ringosc\.dstage\[6\]\.id\.delayen0
*911 ringosc\.dstage\[6\]\.id\.delayen1
*912 ringosc\.dstage\[6\]\.id\.delayenb0
*913 ringosc\.dstage\[6\]\.id\.delayenb1
*914 ringosc\.dstage\[6\]\.id\.delayint0
*915 ringosc\.dstage\[7\]\.id\.delaybuf0
*916 ringosc\.dstage\[7\]\.id\.delaybuf1
*917 ringosc\.dstage\[7\]\.id\.delayen0
*918 ringosc\.dstage\[7\]\.id\.delayen1
*919 ringosc\.dstage\[7\]\.id\.delayenb0
*920 ringosc\.dstage\[7\]\.id\.delayenb1
*921 ringosc\.dstage\[7\]\.id\.delayint0
*922 ringosc\.dstage\[8\]\.id\.delaybuf0
*923 ringosc\.dstage\[8\]\.id\.delaybuf1
*924 ringosc\.dstage\[8\]\.id\.delayen0
*925 ringosc\.dstage\[8\]\.id\.delayen1
*926 ringosc\.dstage\[8\]\.id\.delayenb0
*927 ringosc\.dstage\[8\]\.id\.delayenb1
*928 ringosc\.dstage\[8\]\.id\.delayint0
*929 ringosc\.dstage\[9\]\.id\.delaybuf0
*930 ringosc\.dstage\[9\]\.id\.delaybuf1
*931 ringosc\.dstage\[9\]\.id\.delayen0
*932 ringosc\.dstage\[9\]\.id\.delayen1
*933 ringosc\.dstage\[9\]\.id\.delayenb0
*934 ringosc\.dstage\[9\]\.id\.delayenb1
*935 ringosc\.dstage\[9\]\.id\.delayint0
*936 ringosc\.ibufp00
*937 ringosc\.ibufp01
*938 ringosc\.ibufp10
*939 ringosc\.ibufp11
*940 ringosc\.iss\.const1
*941 ringosc\.iss\.ctrlen0
*942 ringosc\.iss\.delaybuf0
*943 ringosc\.iss\.delayen0
*944 ringosc\.iss\.delayen1
*945 ringosc\.iss\.delayenb0
*946 ringosc\.iss\.delayenb1
*947 ringosc\.iss\.delayint0
*948 ringosc\.iss\.reseten0

*PORTS
clockp[0] O
clockp[1] O
dco I
div[0] I
div[1] I
div[2] I
div[3] I
div[4] I
enable I
ext_trim[0] I
ext_trim[10] I
ext_trim[11] I
ext_trim[12] I
ext_trim[13] I
ext_trim[14] I
ext_trim[15] I
ext_trim[16] I
ext_trim[17] I
ext_trim[18] I
ext_trim[19] I
ext_trim[1] I
ext_trim[20] I
ext_trim[21] I
ext_trim[22] I
ext_trim[23] I
ext_trim[24] I
ext_trim[25] I
ext_trim[2] I
ext_trim[3] I
ext_trim[4] I
ext_trim[5] I
ext_trim[6] I
ext_trim[7] I
ext_trim[8] I
ext_trim[9] I
osc I
resetb I

*D_NET *3 0.000787684
*CONN
*P clockp[0] O
*I *850:X O *D sky130_fd_sc_hd__clkbuf_16
*CAP
1 clockp[0] 0.000393842
2 *850:X 0.000393842
3 clockp[0] clockp[1] 0
*RES
1 *850:X clockp[0] 8.16177 
*END

*D_NET *4 0.00835049
*CONN
*P clockp[1] O
*I *851:X O *D sky130_fd_sc_hd__clkbuf_16
*CAP
1 clockp[1] 0.00211303
2 *851:X 0.00211303
3 clockp[1] *380:DIODE 4.68949e-05
4 clockp[1] *387:DIODE 2.08556e-05
5 clockp[1] *419:DIODE 0.000353007
6 clockp[1] *599:A 0.000125662
7 clockp[1] *603:B 0.000497115
8 clockp[1] *604:A 0.000152076
9 clockp[1] *608:C1 0.000197609
10 clockp[1] *643:A2 0.000114492
11 clockp[1] *723:B1 5.83121e-06
12 clockp[1] *797:B 6.63219e-06
13 clockp[1] *819:A 0.000191226
14 clockp[1] *897:TE 0.00017755
15 clockp[1] *6:7 0
16 clockp[1] *6:36 5.23362e-05
17 clockp[1] *7:25 5.08304e-06
18 clockp[1] *10:30 0.00017707
19 clockp[1] *10:39 0.000100175
20 clockp[1] *11:24 0
21 clockp[1] *12:8 5.92535e-05
22 clockp[1] *90:23 0.000203782
23 clockp[1] *99:6 0.000494904
24 clockp[1] *128:8 0.000138551
25 clockp[1] *130:8 0.000151318
26 clockp[1] *248:10 0
27 clockp[1] *253:26 0.00016
28 clockp[1] *253:30 0.000203769
29 clockp[1] *253:34 0.000242775
30 clockp[1] *253:42 0.000142015
31 clockp[1] *255:8 3.66663e-05
32 clockp[1] *261:8 6.77834e-05
33 clockp[0] clockp[1] 0
*RES
1 *851:X clockp[1] 39.42 
*END

*D_NET *5 0.0192558
*CONN
*P dco I
*I *419:DIODE I *D sky130_fd_sc_hd__diode_2
*I *746:B1 I *D sky130_fd_sc_hd__a21oi_2
*I *733:B I *D sky130_fd_sc_hd__nor2_2
*I *390:DIODE I *D sky130_fd_sc_hd__diode_2
*I *388:DIODE I *D sky130_fd_sc_hd__diode_2
*I *730:A I *D sky130_fd_sc_hd__nor2_2
*I *398:DIODE I *D sky130_fd_sc_hd__diode_2
*I *751:A I *D sky130_fd_sc_hd__buf_2
*I *385:DIODE I *D sky130_fd_sc_hd__diode_2
*I *395:DIODE I *D sky130_fd_sc_hd__diode_2
*I *721:A I *D sky130_fd_sc_hd__buf_2
*I *720:A I *D sky130_fd_sc_hd__buf_2
*I *386:DIODE I *D sky130_fd_sc_hd__diode_2
*I *819:A I *D sky130_fd_sc_hd__buf_2
*CAP
1 dco 0.0006993
2 *419:DIODE 0.000565255
3 *746:B1 8.60255e-05
4 *733:B 0.000171668
5 *390:DIODE 4.70755e-06
6 *388:DIODE 9.48369e-05
7 *730:A 0
8 *398:DIODE 0
9 *751:A 0.000127866
10 *385:DIODE 0.000348579
11 *395:DIODE 0
12 *721:A 0.000171598
13 *720:A 0
14 *386:DIODE 0.000238151
15 *819:A 0.000110508
16 *5:119 0.000496738
17 *5:79 0.00107456
18 *5:75 0.000760197
19 *5:72 0.00025847
20 *5:68 0.000232215
21 *5:66 0.000439207
22 *5:64 0.000307921
23 *5:55 0.00045135
24 *5:40 0.000609462
25 *5:22 0.000371604
26 *5:19 0.000406764
27 *5:8 0.000418843
28 *5:5 0.00143013
29 *385:DIODE *392:DIODE 8.64421e-05
30 *385:DIODE *666:A 4.40028e-05
31 *385:DIODE *872:A 7.43727e-06
32 *385:DIODE *92:19 0
33 *385:DIODE *136:15 7.02983e-05
34 *385:DIODE *339:12 0.000405269
35 *386:DIODE *903:A 0.000517882
36 *386:DIODE *903:TE 1.19928e-05
37 *386:DIODE *938:A 0.000402246
38 *386:DIODE *335:19 8.59296e-05
39 *388:DIODE *723:A2 6.71882e-05
40 *390:DIODE *729:B 2.05571e-05
41 *390:DIODE *93:25 1.17036e-05
42 *419:DIODE *397:DIODE 0.000134802
43 *419:DIODE *590:A 5.49109e-05
44 *419:DIODE *608:A2 8.68042e-06
45 *419:DIODE *608:C1 0.000130724
46 *419:DIODE *612:B 0.000114492
47 *419:DIODE *617:B1 1.83756e-05
48 *419:DIODE *643:A2 0.000114492
49 *419:DIODE *12:8 0
50 *419:DIODE *100:8 0.000137571
51 *419:DIODE *130:8 2.94243e-05
52 *721:A *396:DIODE 0.000157316
53 *721:A *397:DIODE 5.93658e-05
54 *721:A *897:TE 2.49909e-05
55 *721:A *899:TE_B 4.00541e-06
56 *721:A *330:35 8.3063e-05
57 *733:B *726:B 8.23457e-05
58 *733:B *729:A 6.86726e-05
59 *733:B *729:B 0.000113287
60 *733:B *735:A2 6.32103e-05
61 *733:B *30:19 5.74791e-05
62 *733:B *93:25 2.74962e-05
63 *733:B *273:38 0.000119179
64 *733:B *273:49 8.247e-05
65 *746:B1 *730:B 0.000118081
66 *746:B1 *764:B1 8.65961e-05
67 *746:B1 *217:14 0.000119756
68 *751:A *600:A 9.03508e-06
69 *751:A *92:7 1.88062e-05
70 *751:A *275:50 3.66977e-05
71 *819:A *253:18 0.000107535
72 *5:5 *11:24 0
73 *5:5 *12:8 0
74 *5:8 *643:A3 0.000206376
75 *5:8 *907:A 0.000104075
76 *5:8 *918:A 1.801e-05
77 *5:8 *253:18 2.90568e-05
78 *5:19 *900:A 1.26548e-05
79 *5:19 *907:A 7.90574e-05
80 *5:19 *918:A 0.000197534
81 *5:19 *331:10 2.14129e-05
82 *5:19 *331:15 0.000133541
83 *5:22 *896:A 0.000197017
84 *5:22 *900:A 0.000319172
85 *5:22 *328:8 0.000198939
86 *5:40 *900:A 3.83194e-05
87 *5:40 *197:7 8.03466e-05
88 *5:40 *328:8 0.00015639
89 *5:55 *389:DIODE 0.00037908
90 *5:55 *396:DIODE 0.00013994
91 *5:55 *397:DIODE 5.4239e-05
92 *5:55 *732:B1 2.68526e-05
93 *5:55 *741:B1 9.37933e-05
94 *5:55 *761:A1 7.00889e-06
95 *5:55 *878:TE_B 0.000131888
96 *5:55 *23:11 0.000157016
97 *5:55 *305:8 1.61831e-05
98 *5:55 *308:8 1.83847e-05
99 *5:64 *761:A1 6.83659e-05
100 *5:64 *761:A2 1.34503e-05
101 *5:64 *764:B1 5.92269e-05
102 *5:64 *217:14 7.22601e-05
103 *5:64 *285:9 2.14129e-05
104 *5:64 *372:21 0
105 *5:66 *730:B 4.99601e-05
106 *5:66 *285:9 0.000159049
107 *5:66 *372:21 0
108 *5:68 *730:B 3.16057e-06
109 *5:68 *856:A 0.000140248
110 *5:68 *858:A 4.29069e-05
111 *5:68 *285:9 6.67166e-05
112 *5:72 *855:TE 7.28465e-06
113 *5:72 *855:Z 6.93602e-05
114 *5:72 *856:A 6.12435e-05
115 *5:72 *858:A 3.54314e-05
116 *5:72 *288:17 0.000156703
117 *5:75 *855:A 2.00026e-05
118 *5:75 *206:10 4.41506e-05
119 *5:79 *667:A 0.000110577
120 *5:79 *669:A 2.67255e-05
121 *5:79 *684:A1 0.000228863
122 *5:79 *206:10 1.48096e-05
123 *5:79 *275:50 1.74678e-05
124 *5:119 *396:DIODE 5.20235e-05
125 *5:119 *746:A1 3.09608e-05
126 *5:119 *788:A 6.75171e-05
127 *5:119 *163:33 0.000229621
128 *5:119 *197:21 0.000102432
129 *5:119 *273:49 0.000133613
130 clockp[1] *419:DIODE 0.000353007
131 clockp[1] *819:A 0.000191226
*RES
1 dco *5:5 1.5048 
2 *5:5 *5:8 4.3025 
3 *5:8 *819:A 6.12 
4 *5:8 *5:19 6.44 
5 *5:19 *5:22 5.295 
6 *5:22 *386:DIODE 12.11 
7 *5:22 *720:A 1.6 
8 *5:19 *5:40 4.865 
9 *5:40 *721:A 7.335 
10 *5:40 *5:55 10.295 
11 *5:55 *395:DIODE 1.6 
12 *5:55 *5:64 5.12 
13 *5:64 *5:66 2.0175 
14 *5:66 *5:68 1.7625 
15 *5:68 *5:72 4.655 
16 *5:72 *5:75 2.535 
17 *5:75 *5:79 7.275 
18 *5:79 *385:DIODE 12.035 
19 *5:79 *751:A 3.61 
20 *5:75 *398:DIODE 1.6 
21 *5:72 *730:A 1.6 
22 *5:68 *388:DIODE 4.74 
23 *5:66 *5:119 2.03613 
24 *5:119 *390:DIODE 3.8325 
25 *5:119 *733:B 8.3325 
26 *5:64 *746:B1 5.775 
27 *5:5 *419:DIODE 13.2234 
*END

*D_NET *6 0.00949381
*CONN
*P div[0] I
*I *659:B1 I *D sky130_fd_sc_hd__o21ai_2
*I *629:A_N I *D sky130_fd_sc_hd__nand3b_2
*I *377:DIODE I *D sky130_fd_sc_hd__diode_2
*I *383:DIODE I *D sky130_fd_sc_hd__diode_2
*CAP
1 div[0] 0.000429809
2 *659:B1 0
3 *629:A_N 4.42698e-05
4 *377:DIODE 0.00070934
5 *383:DIODE 0
6 *6:61 9.24048e-05
7 *6:36 0.00226325
8 *6:7 0.00203185
9 *377:DIODE *629:C 0.000569342
10 *377:DIODE *832:RESET_B 2.62115e-05
11 *377:DIODE *838:CLK 0
12 *377:DIODE *842:RESET_B 0
13 *377:DIODE *937:A 0.000116151
14 *377:DIODE *249:28 2.60624e-05
15 *377:DIODE *249:35 8.59365e-05
16 *377:DIODE *250:27 0.000159964
17 *377:DIODE *251:40 8.40269e-05
18 *377:DIODE *251:50 1.61831e-05
19 *377:DIODE *252:24 0
20 *377:DIODE *254:10 9.07409e-05
21 *377:DIODE *254:39 0
22 *377:DIODE *371:46 8.08153e-06
23 *629:A_N *629:C 9.03508e-06
24 *629:A_N *822:A 3.1835e-05
25 *629:A_N *822:B 8.49205e-05
26 *6:7 *597:A 0.000472509
27 *6:7 *7:5 0
28 *6:7 *90:23 0.000272587
29 *6:36 *604:A 5.23362e-05
30 *6:36 *604:B 7.17474e-05
31 *6:36 *627:B 0.000178423
32 *6:36 *659:A2 0.000148245
33 *6:36 *713:A2 0.000230916
34 *6:36 *804:A 0.000382708
35 *6:36 *804:B 2.75145e-05
36 *6:36 *843:D 0.00012657
37 *6:36 *845:D 6.40207e-05
38 *6:36 *850:A 0.000162311
39 *6:36 *96:8 0.000184858
40 *6:36 *249:35 5.16418e-05
41 *6:36 *254:39 0
42 *6:36 *254:46 0
43 *6:61 *659:A2 1.66925e-05
44 *6:61 *822:A 3.1835e-05
45 *6:61 *822:B 7.40446e-05
46 *6:61 *845:D 1.30972e-05
47 clockp[1] *6:7 0
48 clockp[1] *6:36 5.23362e-05
*RES
1 div[0] *6:7 1.88827 
2 *6:7 *6:36 34.7525 
3 *6:36 *383:DIODE 3.6 
4 *6:36 *377:DIODE 19.075 
5 *6:7 *6:61 3.2825 
6 *6:61 *629:A_N 2.755 
7 *6:61 *659:B1 1.6 
*END

*D_NET *7 0.00577371
*CONN
*P div[1] I
*I *376:DIODE I *D sky130_fd_sc_hd__diode_2
*I *378:DIODE I *D sky130_fd_sc_hd__diode_2
*I *624:A I *D sky130_fd_sc_hd__inv_2
*I *630:A I *D sky130_fd_sc_hd__and2_2
*CAP
1 div[1] 0.000684205
2 *376:DIODE 0
3 *378:DIODE 0.000149505
4 *624:A 2.39065e-05
5 *630:A 0.000102477
6 *7:31 0.000409648
7 *7:25 0.000997348
8 *7:5 0.00154779
9 *378:DIODE *625:B 1.61831e-05
10 *378:DIODE *702:A 2.67022e-05
11 *378:DIODE *707:B1 0.000199734
12 *378:DIODE *710:B 5.02217e-05
13 *378:DIODE *713:A1 0
14 *378:DIODE *257:20 7.23602e-05
15 *630:A *625:A_N 4.34602e-05
16 *630:A *630:B 5.21545e-05
17 *630:A *662:B 3.09233e-05
18 *630:A *96:15 0.000102102
19 *630:A *96:22 0.000179922
20 *7:5 *597:A 0
21 *7:5 *629:C 7.52392e-05
22 *7:5 *8:7 0
23 *7:25 *625:B 0.000417828
24 *7:25 *629:C 8.55041e-05
25 *7:25 *8:7 0
26 *7:25 *84:44 0
27 *7:25 *261:8 8.41149e-05
28 *7:31 *625:B 4.7101e-05
29 *7:31 *707:A1 4.66108e-05
30 *7:31 *707:A2 3.83194e-05
31 *7:31 *714:B 8.53113e-06
32 *7:31 *798:A 2.34423e-05
33 *7:31 *84:39 4.9968e-05
34 *7:31 *85:33 8.5242e-05
35 *7:31 *256:24 0.000118081
36 clockp[1] *7:25 5.08304e-06
37 *6:7 *7:5 0
*RES
1 div[1] *7:5 1.56307 
2 *7:5 *630:A 7.3925 
3 *7:5 *7:25 9.14143 
4 *7:25 *7:31 8.335 
5 *7:31 *624:A 1.96 
6 *7:31 *378:DIODE 9.215 
7 *7:25 *376:DIODE 1.6 
*END

*D_NET *8 0.010166
*CONN
*P div[2] I
*I *375:DIODE I *D sky130_fd_sc_hd__diode_2
*I *616:A I *D sky130_fd_sc_hd__inv_2
*CAP
1 div[2] 0.00108346
2 *375:DIODE 0.00175903
3 *616:A 0.000477984
4 *8:7 0.00332047
5 *375:DIODE *591:A0 0.000204494
6 *375:DIODE *592:A 5.83121e-06
7 *375:DIODE *832:D 0.00011588
8 *375:DIODE *834:D 2.06497e-05
9 *375:DIODE *834:RESET_B 1.85731e-05
10 *375:DIODE *839:RESET_B 7.19497e-05
11 *375:DIODE *841:RESET_B 0.000373607
12 *375:DIODE *849:CLK 0.000196615
13 *375:DIODE *852:A 7.25377e-05
14 *375:DIODE *251:34 4.89295e-05
15 *375:DIODE *251:40 3.63206e-05
16 *375:DIODE *252:15 8.65961e-05
17 *375:DIODE *253:26 0.000148666
18 *375:DIODE *254:79 8.247e-05
19 *375:DIODE *254:81 2.0187e-05
20 *375:DIODE *254:194 0.000236819
21 *375:DIODE *254:200 5.83121e-06
22 *375:DIODE *259:10 0.000197243
23 *375:DIODE *274:8 0.000159179
24 *616:A *596:A 0.000411679
25 *616:A *605:B 4.66108e-05
26 *616:A *607:B 0.000205853
27 *616:A *623:B 8.57024e-05
28 *616:A *660:D 0.000133447
29 *616:A *826:A 8.35106e-05
30 *616:A *845:D 6.69172e-05
31 *616:A *846:D 1.34594e-05
32 *616:A *849:CLK 1.92979e-05
33 *616:A *84:44 0
34 *616:A *97:5 0.000146408
35 *616:A *115:7 8.49936e-05
36 *616:A *248:18 8.34281e-06
37 *616:A *253:26 4.82172e-06
38 *616:A *253:34 8.23457e-05
39 *616:A *261:8 2.92496e-05
40 *8:7 *9:5 0
41 *8:7 *9:63 0
42 *7:5 *8:7 0
43 *7:25 *8:7 0
*RES
1 div[2] *8:7 2.704 
2 *8:7 *616:A 18.6775 
3 *8:7 *375:DIODE 34.5625 
*END

*D_NET *9 0.0101091
*CONN
*P div[3] I
*I *374:DIODE I *D sky130_fd_sc_hd__diode_2
*I *381:DIODE I *D sky130_fd_sc_hd__diode_2
*I *384:DIODE I *D sky130_fd_sc_hd__diode_2
*I *639:A1 I *D sky130_fd_sc_hd__o21ba_2
*I *661:A1 I *D sky130_fd_sc_hd__o211a_2
*I *632:A1 I *D sky130_fd_sc_hd__o2111a_2
*I *615:A I *D sky130_fd_sc_hd__inv_2
*I *379:DIODE I *D sky130_fd_sc_hd__diode_2
*CAP
1 div[3] 0.000191092
2 *374:DIODE 0.000100247
3 *381:DIODE 0.000144398
4 *384:DIODE 0
5 *639:A1 0.00014031
6 *661:A1 8.15756e-06
7 *632:A1 2.14552e-05
8 *615:A 0
9 *379:DIODE 0.000260825
10 *9:71 0.000433919
11 *9:63 0.00159436
12 *9:38 0.000289847
13 *9:25 0.000775096
14 *9:15 0.000715585
15 *9:7 0.000364147
16 *9:5 0.00159618
17 *374:DIODE *681:A 4.82863e-05
18 *374:DIODE *708:A 9.43504e-05
19 *379:DIODE *632:D1 0.000149233
20 *379:DIODE *846:D 7.4027e-05
21 *381:DIODE *681:A 0.000126743
22 *381:DIODE *259:10 2.7881e-05
23 *381:DIODE *259:34 0.000164287
24 *632:A1 *134:9 0
25 *639:A1 *639:A2 0.000229122
26 *639:A1 *639:B1_N 0.000144732
27 *639:A1 *661:A2 4.66108e-05
28 *639:A1 *916:A 0.000154554
29 *661:A1 *639:B1_N 3.39107e-05
30 *661:A1 *661:A2 3.39107e-05
31 *9:5 *10:5 0
32 *9:15 *632:D1 8.12211e-05
33 *9:25 *621:A1 0.000294405
34 *9:25 *632:D1 3.56097e-05
35 *9:25 *643:A1 9.71067e-05
36 *9:25 *903:A 0.000146308
37 *9:25 *106:23 5.05521e-05
38 *9:38 *662:D 0.000130955
39 *9:38 *106:23 0.000200261
40 *9:38 *253:18 1.29636e-05
41 *9:63 *593:S 0.000505511
42 *9:63 *704:B1 3.96737e-05
43 *9:63 *10:5 0
44 *9:63 *253:26 2.23203e-05