*SPEF "ieee 1481-1999"
*DESIGN "digital_pll"
*DATE "11:11:11 Fri 11 11, 1111"
*VENDOR "OpenRCX"
*PROGRAM "Parallel Extraction"
*VERSION "1.0"
*DESIGN_FLOW "NAME_SCOPE LOCAL" "PIN_CAP NONE"
*DIVIDER /
*DELIMITER :
*BUS_DELIMITER []
*T_UNIT 1 NS
*C_UNIT 1 PF
*R_UNIT 1 OHM
*L_UNIT 1 HENRY

*NAME_MAP
*3 clockp[0]
*4 clockp[1]
*5 dco
*6 div[0]
*7 div[1]
*8 div[2]
*9 div[3]
*10 div[4]
*11 enable
*12 ext_trim[0]
*13 ext_trim[10]
*14 ext_trim[11]
*15 ext_trim[12]
*16 ext_trim[13]
*17 ext_trim[14]
*18 ext_trim[15]
*19 ext_trim[16]
*20 ext_trim[17]
*21 ext_trim[18]
*22 ext_trim[19]
*23 ext_trim[1]
*24 ext_trim[20]
*25 ext_trim[21]
*26 ext_trim[22]
*27 ext_trim[23]
*28 ext_trim[24]
*29 ext_trim[25]
*30 ext_trim[2]
*31 ext_trim[3]
*32 ext_trim[4]
*33 ext_trim[5]
*34 ext_trim[6]
*35 ext_trim[7]
*36 ext_trim[8]
*37 ext_trim[9]
*38 osc
*39 resetb
*40 _000_
*41 _001_
*42 _002_
*43 _003_
*44 _004_
*45 _005_
*46 _006_
*47 _007_
*48 _008_
*49 _009_
*50 _010_
*51 _011_
*52 _012_
*53 _013_
*54 _014_
*55 _015_
*56 _016_
*57 _017_
*58 _018_
*59 _019_
*60 _020_
*61 _021_
*62 _022_
*63 _023_
*64 _024_
*65 _025_
*66 _026_
*67 _027_
*68 _028_
*69 _029_
*70 _030_
*71 _031_
*72 _032_
*73 _033_
*74 _034_
*75 _035_
*76 _036_
*77 _037_
*78 _038_
*79 _039_
*80 _040_
*81 _041_
*82 _042_
*83 _043_
*84 _044_
*85 _045_
*86 _046_
*87 _047_
*88 _048_
*89 _049_
*90 _050_
*91 _051_
*92 _052_
*93 _053_
*94 _054_
*95 _055_
*96 _056_
*97 _057_
*98 _058_
*99 _059_
*100 _060_
*101 _061_
*102 _062_
*103 _063_
*104 _064_
*105 _065_
*106 _066_
*107 _067_
*108 _068_
*109 _069_
*110 _070_
*111 _071_
*112 _072_
*113 _073_
*114 _074_
*115 _075_
*116 _076_
*117 _077_
*118 _078_
*119 _079_
*120 _080_
*121 _081_
*122 _082_
*123 _083_
*124 _084_
*125 _085_
*126 _086_
*127 _087_
*128 _088_
*129 _089_
*130 _090_
*131 _091_
*132 _092_
*133 _093_
*134 _094_
*135 _095_
*136 _096_
*137 _097_
*138 _098_
*139 _099_
*140 _100_
*141 _101_
*142 _102_
*143 _103_
*144 _104_
*145 _105_
*146 _106_
*147 _107_
*148 _108_
*149 _109_
*150 _110_
*151 _111_
*152 _112_
*153 _113_
*154 _114_
*155 _115_
*156 _116_
*157 _117_
*158 _118_
*159 _119_
*160 _120_
*161 _121_
*162 _122_
*163 _123_
*164 _124_
*165 _125_
*166 _126_
*167 _127_
*168 _128_
*169 _129_
*170 _130_
*171 _131_
*172 _132_
*173 _133_
*174 _134_
*175 _135_
*176 _136_
*177 _137_
*178 _138_
*179 _139_
*180 _140_
*181 _141_
*182 _142_
*183 _143_
*184 _144_
*185 _145_
*186 _146_
*187 _147_
*188 _148_
*189 _149_
*190 _150_
*191 _151_
*192 _152_
*193 _153_
*194 _154_
*195 _155_
*196 _156_
*197 _157_
*198 _158_
*199 _159_
*200 _160_
*201 _161_
*202 _162_
*203 _163_
*204 _164_
*205 _165_
*206 _166_
*207 _167_
*208 _168_
*209 _169_
*210 _170_
*211 _171_
*212 _172_
*213 _173_
*214 _174_
*215 _175_
*216 _176_
*217 _177_
*218 _178_
*219 _179_
*220 _180_
*221 _181_
*222 _182_
*223 _183_
*224 _184_
*225 _185_
*226 _186_
*227 _187_
*228 _188_
*229 _189_
*230 _190_
*231 _191_
*232 _192_
*233 _193_
*234 _194_
*235 _195_
*236 _196_
*237 _197_
*238 _198_
*239 _199_
*240 _200_
*241 _201_
*242 _202_
*243 _203_
*244 _204_
*245 _205_
*246 _206_
*247 _207_
*248 _208_
*249 _209_
*250 _210_
*251 _211_
*252 _212_
*253 _213_
*254 pll_control\.clock
*255 pll_control\.count0\[0\]
*256 pll_control\.count0\[1\]
*257 pll_control\.count0\[2\]
*258 pll_control\.count0\[3\]
*259 pll_control\.count0\[4\]
*260 pll_control\.count1\[0\]
*261 pll_control\.count1\[1\]
*262 pll_control\.count1\[2\]
*263 pll_control\.count1\[3\]
*264 pll_control\.count1\[4\]
*265 pll_control\.oscbuf\[0\]
*266 pll_control\.oscbuf\[1\]
*267 pll_control\.oscbuf\[2\]
*268 pll_control\.prep\[0\]
*269 pll_control\.prep\[1\]
*270 pll_control\.prep\[2\]
*271 pll_control\.tint\[0\]
*272 pll_control\.tint\[1\]
*273 pll_control\.tint\[2\]
*274 pll_control\.tint\[3\]
*275 pll_control\.tint\[4\]
*276 pll_control\.tval\[0\]
*277 pll_control\.tval\[1\]
*278 ringosc\.c\[0\]
*279 ringosc\.c\[1\]
*280 ringosc\.clockp\[1\]
*281 ringosc\.dstage\[0\]\.id\.d0
*282 ringosc\.dstage\[0\]\.id\.d1
*283 ringosc\.dstage\[0\]\.id\.d2
*284 ringosc\.dstage\[0\]\.id\.in
*285 ringosc\.dstage\[0\]\.id\.out
*286 ringosc\.dstage\[0\]\.id\.trim\[0\]
*287 ringosc\.dstage\[0\]\.id\.trim\[1\]
*288 ringosc\.dstage\[0\]\.id\.ts
*289 ringosc\.dstage\[10\]\.id\.d0
*290 ringosc\.dstage\[10\]\.id\.d1
*291 ringosc\.dstage\[10\]\.id\.d2
*292 ringosc\.dstage\[10\]\.id\.in
*293 ringosc\.dstage\[10\]\.id\.out
*294 ringosc\.dstage\[10\]\.id\.trim\[0\]
*295 ringosc\.dstage\[10\]\.id\.trim\[1\]
*296 ringosc\.dstage\[10\]\.id\.ts
*297 ringosc\.dstage\[11\]\.id\.d0
*298 ringosc\.dstage\[11\]\.id\.d1
*299 ringosc\.dstage\[11\]\.id\.d2
*300 ringosc\.dstage\[11\]\.id\.out
*301 ringosc\.dstage\[11\]\.id\.trim\[0\]
*302 ringosc\.dstage\[11\]\.id\.trim\[1\]
*303 ringosc\.dstage\[11\]\.id\.ts
*304 ringosc\.dstage\[1\]\.id\.d0
*305 ringosc\.dstage\[1\]\.id\.d1
*306 ringosc\.dstage\[1\]\.id\.d2
*307 ringosc\.dstage\[1\]\.id\.out
*308 ringosc\.dstage\[1\]\.id\.trim\[0\]
*309 ringosc\.dstage\[1\]\.id\.trim\[1\]
*310 ringosc\.dstage\[1\]\.id\.ts
*311 ringosc\.dstage\[2\]\.id\.d0
*312 ringosc\.dstage\[2\]\.id\.d1
*313 ringosc\.dstage\[2\]\.id\.d2
*314 ringosc\.dstage\[2\]\.id\.out
*315 ringosc\.dstage\[2\]\.id\.trim\[0\]
*316 ringosc\.dstage\[2\]\.id\.trim\[1\]
*317 ringosc\.dstage\[2\]\.id\.ts
*318 ringosc\.dstage\[3\]\.id\.d0
*319 ringosc\.dstage\[3\]\.id\.d1
*320 ringosc\.dstage\[3\]\.id\.d2
*321 ringosc\.dstage\[3\]\.id\.out
*322 ringosc\.dstage\[3\]\.id\.trim\[0\]
*323 ringosc\.dstage\[3\]\.id\.trim\[1\]
*324 ringosc\.dstage\[3\]\.id\.ts
*325 ringosc\.dstage\[4\]\.id\.d0
*326 ringosc\.dstage\[4\]\.id\.d1
*327 ringosc\.dstage\[4\]\.id\.d2
*328 ringosc\.dstage\[4\]\.id\.out
*329 ringosc\.dstage\[4\]\.id\.trim\[0\]
*330 ringosc\.dstage\[4\]\.id\.trim\[1\]
*331 ringosc\.dstage\[4\]\.id\.ts
*332 ringosc\.dstage\[5\]\.id\.d0
*333 ringosc\.dstage\[5\]\.id\.d1
*334 ringosc\.dstage\[5\]\.id\.d2
*335 ringosc\.dstage\[5\]\.id\.out
*336 ringosc\.dstage\[5\]\.id\.trim\[0\]
*337 ringosc\.dstage\[5\]\.id\.trim\[1\]
*338 ringosc\.dstage\[5\]\.id\.ts
*339 ringosc\.dstage\[6\]\.id\.d0
*340 ringosc\.dstage\[6\]\.id\.d1
*341 ringosc\.dstage\[6\]\.id\.d2
*342 ringosc\.dstage\[6\]\.id\.out
*343 ringosc\.dstage\[6\]\.id\.trim\[0\]
*344 ringosc\.dstage\[6\]\.id\.trim\[1\]
*345 ringosc\.dstage\[6\]\.id\.ts
*346 ringosc\.dstage\[7\]\.id\.d0
*347 ringosc\.dstage\[7\]\.id\.d1
*348 ringosc\.dstage\[7\]\.id\.d2
*349 ringosc\.dstage\[7\]\.id\.out
*350 ringosc\.dstage\[7\]\.id\.trim\[0\]
*351 ringosc\.dstage\[7\]\.id\.trim\[1\]
*352 ringosc\.dstage\[7\]\.id\.ts
*353 ringosc\.dstage\[8\]\.id\.d0
*354 ringosc\.dstage\[8\]\.id\.d1
*355 ringosc\.dstage\[8\]\.id\.d2
*356 ringosc\.dstage\[8\]\.id\.out
*357 ringosc\.dstage\[8\]\.id\.trim\[0\]
*358 ringosc\.dstage\[8\]\.id\.trim\[1\]
*359 ringosc\.dstage\[8\]\.id\.ts
*360 ringosc\.dstage\[9\]\.id\.d0
*361 ringosc\.dstage\[9\]\.id\.d1
*362 ringosc\.dstage\[9\]\.id\.d2
*363 ringosc\.dstage\[9\]\.id\.trim\[0\]
*364 ringosc\.dstage\[9\]\.id\.trim\[1\]
*365 ringosc\.dstage\[9\]\.id\.ts
*366 ringosc\.iss\.ctrl0
*367 ringosc\.iss\.d0
*368 ringosc\.iss\.d1
*369 ringosc\.iss\.d2
*370 ringosc\.iss\.one
*371 ringosc\.iss\.reset
*372 ringosc\.iss\.trim\[0\]
*373 ringosc\.iss\.trim\[1\]
*374 ANTENNA__243__A
*375 ANTENNA__244__A
*376 ANTENNA__252__A
*377 ANTENNA__257__A_N
*378 ANTENNA__258__A
*379 ANTENNA__260__A1
*380 ANTENNA__266__A
*381 ANTENNA__267__A1
*382 ANTENNA__270__A1
*383 ANTENNA__287__B1
*384 ANTENNA__289__A1
*385 ANTENNA__348__A
*386 ANTENNA__349__A
*387 ANTENNA__350__A
*388 ANTENNA__358__A
*389 ANTENNA__360__A2
*390 ANTENNA__361__B
*391 ANTENNA__363__A2
*392 ANTENNA__364__A2
*393 ANTENNA__369__A2
*394 ANTENNA__373__A2
*395 ANTENNA__374__B1
*396 ANTENNA__375__A2
*397 ANTENNA__378__A2
*398 ANTENNA__379__A
*399 ANTENNA__380__A2
*400 ANTENNA__383__A2
*401 ANTENNA__384__A_N
*402 ANTENNA__387__B1
*403 ANTENNA__389__A2
*404 ANTENNA__392__A1
*405 ANTENNA__392__A2
*406 ANTENNA__396__A2
*407 ANTENNA__399__A2
*408 ANTENNA__404__A1
*409 ANTENNA__404__A2
*410 ANTENNA__409__B1
*411 ANTENNA__410__A1
*412 ANTENNA__410__A2
*413 ANTENNA__411__A2
*414 ANTENNA__417__B1
*415 ANTENNA__419__A1
*416 ANTENNA__419__A2
*417 ANTENNA__421__B1
*418 ANTENNA__422__A1
*419 ANTENNA__422__A2
*420 ANTENNA__423__A2
*421 ANTENNA__424__A2
*422 ANTENNA__425__A
*423 ANTENNA__425__B
*424 ANTENNA__427__A
*425 ANTENNA__428__A
*426 ANTENNA__447__A
*427 ANTENNA__470__D
*428 ANTENNA_ringosc\.dstage\[0\]\.id\.delaybuf0_A
*429 ANTENNA_ringosc\.ibufp00_A
*430 FILLER_0_111
*431 FILLER_0_113
*432 FILLER_0_117
*433 FILLER_0_122
*434 FILLER_0_134
*435 FILLER_0_141
*436 FILLER_0_145
*437 FILLER_0_167
*438 FILLER_0_169
*439 FILLER_0_175
*440 FILLER_0_183
*441 FILLER_0_189
*442 FILLER_0_24
*443 FILLER_0_29
*444 FILLER_0_3
*445 FILLER_0_39
*446 FILLER_0_43
*447 FILLER_0_49
*448 FILLER_0_55
*449 FILLER_0_57
*450 FILLER_0_60
*451 FILLER_0_72
*452 FILLER_0_78
*453 FILLER_0_83
*454 FILLER_0_85
*455 FILLER_0_94
*456 FILLER_10_110
*457 FILLER_10_125
*458 FILLER_10_136
*459 FILLER_10_141
*460 FILLER_10_155
*461 FILLER_10_163
*462 FILLER_10_177
*463 FILLER_10_186
*464 FILLER_10_19
*465 FILLER_10_27
*466 FILLER_10_29
*467 FILLER_10_3
*468 FILLER_10_34
*469 FILLER_10_49
*470 FILLER_10_64
*471 FILLER_10_7
*472 FILLER_10_79
*473 FILLER_10_83
*474 FILLER_10_85
*475 FILLER_10_99
*476 FILLER_11_106
*477 FILLER_11_113
*478 FILLER_11_123
*479 FILLER_11_127
*480 FILLER_11_137
*481 FILLER_11_143
*482 FILLER_11_154
*483 FILLER_11_16
*484 FILLER_11_160
*485 FILLER_11_167
*486 FILLER_11_169
*487 FILLER_11_181
*488 FILLER_11_186
*489 FILLER_11_3
*490 FILLER_11_30
*491 FILLER_11_38
*492 FILLER_11_45
*493 FILLER_11_50
*494 FILLER_11_55
*495 FILLER_11_57
*496 FILLER_11_6
*497 FILLER_11_62
*498 FILLER_11_70
*499 FILLER_11_81
*500 FILLER_11_90
*501 FILLER_11_98
*502 FILLER_12_107
*503 FILLER_12_118
*504 FILLER_12_133
*505 FILLER_12_139
*506 FILLER_12_141
*507 FILLER_12_144
*508 FILLER_12_159
*509 FILLER_12_169
*510 FILLER_12_189
*511 FILLER_12_24
*512 FILLER_12_29
*513 FILLER_12_3
*514 FILLER_12_35
*515 FILLER_12_44
*516 FILLER_12_49
*517 FILLER_12_53
*518 FILLER_12_68
*519 FILLER_12_83
*520 FILLER_12_85
*521 FILLER_12_93
*522 FILLER_12_99
*523 FILLER_13_102
*524 FILLER_13_107
*525 FILLER_13_111
*526 FILLER_13_113
*527 FILLER_13_118
*528 FILLER_13_123
*529 FILLER_13_128
*530 FILLER_13_138
*531 FILLER_13_145
*532 FILLER_13_15
*533 FILLER_13_151
*534 FILLER_13_161
*535 FILLER_13_166
*536 FILLER_13_169
*537 FILLER_13_177
*538 FILLER_13_185
*539 FILLER_13_189
*540 FILLER_13_3
*541 FILLER_13_34
*542 FILLER_13_47
*543 FILLER_13_55
*544 FILLER_13_57
*545 FILLER_13_62
*546 FILLER_13_70
*547 FILLER_13_74
*548 FILLER_13_81
*549 FILLER_13_9
*550 FILLER_13_90
*551 FILLER_14_109
*552 FILLER_14_113
*553 FILLER_14_117
*554 FILLER_14_124
*555 FILLER_14_128
*556 FILLER_14_137
*557 FILLER_14_141
*558 FILLER_14_150
*559 FILLER_14_160
*560 FILLER_14_164
*561 FILLER_14_168
*562 FILLER_14_17
*563 FILLER_14_187
*564 FILLER_14_27
*565 FILLER_14_29
*566 FILLER_14_3
*567 FILLER_14_38
*568 FILLER_14_44
*569 FILLER_14_48
*570 FILLER_14_56
*571 FILLER_14_63
*572 FILLER_14_70
*573 FILLER_14_77
*574 FILLER_14_83
*575 FILLER_14_85
*576 FILLER_14_89
*577 FILLER_14_97
*578 FILLER_15_102
*579 FILLER_15_111
*580 FILLER_15_113
*581 FILLER_15_119
*582 FILLER_15_127
*583 FILLER_15_13
*584 FILLER_15_134
*585 FILLER_15_139
*586 FILLER_15_151
*587 FILLER_15_161
*588 FILLER_15_167
*589 FILLER_15_169
*590 FILLER_15_17
*591 FILLER_15_177
*592 FILLER_15_186
*593 FILLER_15_3
*594 FILLER_15_36
*595 FILLER_15_40
*596 FILLER_15_44
*597 FILLER_15_55
*598 FILLER_15_57
*599 FILLER_15_62
*600 FILLER_15_72
*601 FILLER_15_81
*602 FILLER_15_85
*603 FILLER_15_92
*604 FILLER_16_100
*605 FILLER_16_107
*606 FILLER_16_114
*607 FILLER_16_122
*608 FILLER_16_127
*609 FILLER_16_135
*610 FILLER_16_139
*611 FILLER_16_141
*612 FILLER_16_150
*613 FILLER_16_160
*614 FILLER_16_166
*615 FILLER_16_18
*616 FILLER_16_181
*617 FILLER_16_187
*618 FILLER_16_27
*619 FILLER_16_29
*620 FILLER_16_3
*621 FILLER_16_41
*622 FILLER_16_46
*623 FILLER_16_52
*624 FILLER_16_59
*625 FILLER_16_68
*626 FILLER_16_72
*627 FILLER_16_81
*628 FILLER_16_85
*629 FILLER_16_9
*630 FILLER_16_91
*631 FILLER_17_110
*632 FILLER_17_113
*633 FILLER_17_122
*634 FILLER_17_129
*635 FILLER_17_138
*636 FILLER_17_14
*637 FILLER_17_142
*638 FILLER_17_149
*639 FILLER_17_161
*640 FILLER_17_167
*641 FILLER_17_169
*642 FILLER_17_179
*643 FILLER_17_18
*644 FILLER_17_188
*645 FILLER_17_24
*646 FILLER_17_29
*647 FILLER_17_3
*648 FILLER_17_38
*649 FILLER_17_44
*650 FILLER_17_55
*651 FILLER_17_57
*652 FILLER_17_62
*653 FILLER_17_71
*654 FILLER_17_82
*655 FILLER_17_90
*656 FILLER_17_99
*657 FILLER_18_105
*658 FILLER_18_115
*659 FILLER_18_125
*660 FILLER_18_129
*661 FILLER_18_139
*662 FILLER_18_141
*663 FILLER_18_151
*664 FILLER_18_158
*665 FILLER_18_172
*666 FILLER_18_181
*667 FILLER_18_186
*668 FILLER_18_22
*669 FILLER_18_26
*670 FILLER_18_29
*671 FILLER_18_3
*672 FILLER_18_48
*673 FILLER_18_61
*674 FILLER_18_72
*675 FILLER_18_83
*676 FILLER_18_85
*677 FILLER_18_94
*678 FILLER_18_98
*679 FILLER_19_100
*680 FILLER_19_108
*681 FILLER_19_113
*682 FILLER_19_122
*683 FILLER_19_127
*684 FILLER_19_136
*685 FILLER_19_14
*686 FILLER_19_145
*687 FILLER_19_158
*688 FILLER_19_162
*689 FILLER_19_167
*690 FILLER_19_169
*691 FILLER_19_18
*692 FILLER_19_189
*693 FILLER_19_23
*694 FILLER_19_3
*695 FILLER_19_32
*696 FILLER_19_41
*697 FILLER_19_46
*698 FILLER_19_55
*699 FILLER_19_57
*700 FILLER_19_60
*701 FILLER_19_69
*702 FILLER_19_73
*703 FILLER_19_82
*704 FILLER_19_88
*705 FILLER_1_11
*706 FILLER_1_111
*707 FILLER_1_113
*708 FILLER_1_135
*709 FILLER_1_158
*710 FILLER_1_165
*711 FILLER_1_169
*712 FILLER_1_186
*713 FILLER_1_20
*714 FILLER_1_3
*715 FILLER_1_45
*716 FILLER_1_49
*717 FILLER_1_55
*718 FILLER_1_57
*719 FILLER_1_61
*720 FILLER_1_76
*721 FILLER_1_99
*722 FILLER_20_106
*723 FILLER_20_116
*724 FILLER_20_120
*725 FILLER_20_131
*726 FILLER_20_138
*727 FILLER_20_14
*728 FILLER_20_141
*729 FILLER_20_160
*730 FILLER_20_167
*731 FILLER_20_176
*732 FILLER_20_18
*733 FILLER_20_185
*734 FILLER_20_189
*735 FILLER_20_23
*736 FILLER_20_27
*737 FILLER_20_29
*738 FILLER_20_3
*739 FILLER_20_37
*740 FILLER_20_47
*741 FILLER_20_54
*742 FILLER_20_74
*743 FILLER_20_83
*744 FILLER_20_85
*745 FILLER_20_95
*746 FILLER_21_100
*747 FILLER_21_111
*748 FILLER_21_113
*749 FILLER_21_125
*750 FILLER_21_129
*751 FILLER_21_141
*752 FILLER_21_147
*753 FILLER_21_167
*754 FILLER_21_169
*755 FILLER_21_17
*756 FILLER_21_184
*757 FILLER_21_189
*758 FILLER_21_3
*759 FILLER_21_38
*760 FILLER_21_51
*761 FILLER_21_55
*762 FILLER_21_57
*763 FILLER_21_67
*764 FILLER_21_87
*765 FILLER_22_105
*766 FILLER_22_109
*767 FILLER_22_11
*768 FILLER_22_113
*769 FILLER_22_117
*770 FILLER_22_127
*771 FILLER_22_131
*772 FILLER_22_139
*773 FILLER_22_141
*774 FILLER_22_149
*775 FILLER_22_15
*776 FILLER_22_154
*777 FILLER_22_161
*778 FILLER_22_166
*779 FILLER_22_169
*780 FILLER_22_177
*781 FILLER_22_182
*782 FILLER_22_186
*783 FILLER_22_20
*784 FILLER_22_27
*785 FILLER_22_29
*786 FILLER_22_3
*787 FILLER_22_32
*788 FILLER_22_41
*789 FILLER_22_45
*790 FILLER_22_51
*791 FILLER_22_55
*792 FILLER_22_57
*793 FILLER_22_65
*794 FILLER_22_71
*795 FILLER_22_76
*796 FILLER_22_83
*797 FILLER_22_85
*798 FILLER_22_94
*799 FILLER_22_99
*800 FILLER_2_103
*801 FILLER_2_112
*802 FILLER_2_139
*803 FILLER_2_141
*804 FILLER_2_146
*805 FILLER_2_150
*806 FILLER_2_173
*807 FILLER_2_177
*808 FILLER_2_187
*809 FILLER_2_20
*810 FILLER_2_27
*811 FILLER_2_29
*812 FILLER_2_3
*813 FILLER_2_38
*814 FILLER_2_48
*815 FILLER_2_71
*816 FILLER_2_79
*817 FILLER_2_83
*818 FILLER_2_85
*819 FILLER_2_9
*820 FILLER_2_92
*821 FILLER_2_96
*822 FILLER_3_110
*823 FILLER_3_113
*824 FILLER_3_120
*825 FILLER_3_127
*826 FILLER_3_131
*827 FILLER_3_137
*828 FILLER_3_14
*829 FILLER_3_144
*830 FILLER_3_167
*831 FILLER_3_169
*832 FILLER_3_176
*833 FILLER_3_18
*834 FILLER_3_187
*835 FILLER_3_3
*836 FILLER_3_33
*837 FILLER_3_37
*838 FILLER_3_47
*839 FILLER_3_55
*840 FILLER_3_57
*841 FILLER_3_64
*842 FILLER_3_72
*843 FILLER_3_95
*844 FILLER_4_102
*845 FILLER_4_112
*846 FILLER_4_135
*847 FILLER_4_139
*848 FILLER_4_141
*849 FILLER_4_147
*850 FILLER_4_151
*851 FILLER_4_173
*852 FILLER_4_185
*853 FILLER_4_189
*854 FILLER_4_20
*855 FILLER_4_25
*856 FILLER_4_29
*857 FILLER_4_3
*858 FILLER_4_43
*859 FILLER_4_47
*860 FILLER_4_58
*861 FILLER_4_67
*862 FILLER_4_74
*863 FILLER_4_83
*864 FILLER_4_85
*865 FILLER_4_9
*866 FILLER_4_93
*867 FILLER_5_106
*868 FILLER_5_113
*869 FILLER_5_12
*870 FILLER_5_120
*871 FILLER_5_127
*872 FILLER_5_134
*873 FILLER_5_138
*874 FILLER_5_144
*875 FILLER_5_167
*876 FILLER_5_169
*877 FILLER_5_174
*878 FILLER_5_181
*879 FILLER_5_188
*880 FILLER_5_3
*881 FILLER_5_35
*882 FILLER_5_46
*883 FILLER_5_53
*884 FILLER_5_57
*885 FILLER_5_79
*886 FILLER_5_85
*887 FILLER_5_91
*888 FILLER_5_98
*889 FILLER_6_100
*890 FILLER_6_108
*891 FILLER_6_12
*892 FILLER_6_130
*893 FILLER_6_139
*894 FILLER_6_141
*895 FILLER_6_146
*896 FILLER_6_169
*897 FILLER_6_17
*898 FILLER_6_177
*899 FILLER_6_186
*900 FILLER_6_21
*901 FILLER_6_27
*902 FILLER_6_29
*903 FILLER_6_3
*904 FILLER_6_32
*905 FILLER_6_39
*906 FILLER_6_46
*907 FILLER_6_53
*908 FILLER_6_76
*909 FILLER_6_83
*910 FILLER_6_85
*911 FILLER_6_93
*912 FILLER_7_108
*913 FILLER_7_113
*914 FILLER_7_135
*915 FILLER_7_158
*916 FILLER_7_162
*917 FILLER_7_167
*918 FILLER_7_169
*919 FILLER_7_17
*920 FILLER_7_172
*921 FILLER_7_179
*922 FILLER_7_186
*923 FILLER_7_23
*924 FILLER_7_27
*925 FILLER_7_3
*926 FILLER_7_34
*927 FILLER_7_43
*928 FILLER_7_51
*929 FILLER_7_55
*930 FILLER_7_57
*931 FILLER_7_62
*932 FILLER_7_85
*933 FILLER_8_114
*934 FILLER_8_126
*935 FILLER_8_13
*936 FILLER_8_130
*937 FILLER_8_135
*938 FILLER_8_139
*939 FILLER_8_141
*940 FILLER_8_147
*941 FILLER_8_171
*942 FILLER_8_180
*943 FILLER_8_185
*944 FILLER_8_189
*945 FILLER_8_24
*946 FILLER_8_29
*947 FILLER_8_3
*948 FILLER_8_37
*949 FILLER_8_46
*950 FILLER_8_55
*951 FILLER_8_6
*952 FILLER_8_61
*953 FILLER_8_74
*954 FILLER_8_81
*955 FILLER_8_85
*956 FILLER_8_98
*957 FILLER_9_100
*958 FILLER_9_107
*959 FILLER_9_111
*960 FILLER_9_113
*961 FILLER_9_12
*962 FILLER_9_123
*963 FILLER_9_138
*964 FILLER_9_145
*965 FILLER_9_156
*966 FILLER_9_160
*967 FILLER_9_167
*968 FILLER_9_169
*969 FILLER_9_189
*970 FILLER_9_22
*971 FILLER_9_3
*972 FILLER_9_32
*973 FILLER_9_39
*974 FILLER_9_49
*975 FILLER_9_54
*976 FILLER_9_57
*977 FILLER_9_63
*978 FILLER_9_67
*979 FILLER_9_7
*980 FILLER_9_72
*981 FILLER_9_83
*982 FILLER_9_94
*983 PHY_0
*984 PHY_1
*985 PHY_10
*986 PHY_11
*987 PHY_12
*988 PHY_13
*989 PHY_14
*990 PHY_15
*991 PHY_16
*992 PHY_17
*993 PHY_18
*994 PHY_19
*995 PHY_2
*996 PHY_20
*997 PHY_21
*998 PHY_22
*999 PHY_23
*1000 PHY_24
*1001 PHY_25
*1002 PHY_26
*1003 PHY_27
*1004 PHY_28
*1005 PHY_29
*1006 PHY_3
*1007 PHY_30
*1008 PHY_31
*1009 PHY_32
*1010 PHY_33
*1011 PHY_34
*1012 PHY_35
*1013 PHY_36
*1014 PHY_37
*1015 PHY_38
*1016 PHY_39
*1017 PHY_4
*1018 PHY_40
*1019 PHY_41
*1020 PHY_42
*1021 PHY_43
*1022 PHY_44
*1023 PHY_45
*1024 PHY_5
*1025 PHY_6
*1026 PHY_7
*1027 PHY_8
*1028 PHY_9
*1029 TAP_100
*1030 TAP_101
*1031 TAP_102
*1032 TAP_103
*1033 TAP_104
*1034 TAP_105
*1035 TAP_106
*1036 TAP_107
*1037 TAP_108
*1038 TAP_109
*1039 TAP_110
*1040 TAP_111
*1041 TAP_112
*1042 TAP_113
*1043 TAP_114
*1044 TAP_115
*1045 TAP_116
*1046 TAP_117
*1047 TAP_118
*1048 TAP_119
*1049 TAP_120
*1050 TAP_46
*1051 TAP_47
*1052 TAP_48
*1053 TAP_49
*1054 TAP_50
*1055 TAP_51
*1056 TAP_52
*1057 TAP_53
*1058 TAP_54
*1059 TAP_55
*1060 TAP_56
*1061 TAP_57
*1062 TAP_58
*1063 TAP_59
*1064 TAP_60
*1065 TAP_61
*1066 TAP_62
*1067 TAP_63
*1068 TAP_64
*1069 TAP_65
*1070 TAP_66
*1071 TAP_67
*1072 TAP_68
*1073 TAP_69
*1074 TAP_70
*1075 TAP_71
*1076 TAP_72
*1077 TAP_73
*1078 TAP_74
*1079 TAP_75
*1080 TAP_76
*1081 TAP_77
*1082 TAP_78
*1083 TAP_79
*1084 TAP_80
*1085 TAP_81
*1086 TAP_82
*1087 TAP_83
*1088 TAP_84
*1089 TAP_85
*1090 TAP_86
*1091 TAP_87
*1092 TAP_88
*1093 TAP_89
*1094 TAP_90
*1095 TAP_91
*1096 TAP_92
*1097 TAP_93
*1098 TAP_94
*1099 TAP_95
*1100 TAP_96
*1101 TAP_97
*1102 TAP_98
*1103 TAP_99
*1104 _214_
*1105 _215_
*1106 _216_
*1107 _217_
*1108 _218_
*1109 _219_
*1110 _220_
*1111 _221_
*1112 _222_
*1113 _223_
*1114 _224_
*1115 _225_
*1116 _226_
*1117 _227_
*1118 _228_
*1119 _229_
*1120 _230_
*1121 _231_
*1122 _232_
*1123 _233_
*1124 _234_
*1125 _235_
*1126 _236_
*1127 _237_
*1128 _238_
*1129 _239_
*1130 _240_
*1131 _241_
*1132 _242_
*1133 _243_
*1134 _244_
*1135 _245_
*1136 _246_
*1137 _247_
*1138 _248_
*1139 _249_
*1140 _250_
*1141 _251_
*1142 _252_
*1143 _253_
*1144 _254_
*1145 _255_
*1146 _256_
*1147 _257_
*1148 _258_
*1149 _259_
*1150 _260_
*1151 _261_
*1152 _262_
*1153 _263_
*1154 _264_
*1155 _265_
*1156 _266_
*1157 _267_
*1158 _268_
*1159 _269_
*1160 _270_
*1161 _271_
*1162 _272_
*1163 _273_
*1164 _274_
*1165 _275_
*1166 _276_
*1167 _277_
*1168 _278_
*1169 _279_
*1170 _280_
*1171 _281_
*1172 _282_
*1173 _283_
*1174 _284_
*1175 _285_
*1176 _286_
*1177 _287_
*1178 _288_
*1179 _289_
*1180 _290_
*1181 _291_
*1182 _292_
*1183 _293_
*1184 _294_
*1185 _295_
*1186 _296_
*1187 _297_
*1188 _298_
*1189 _299_
*1190 _300_
*1191 _301_
*1192 _302_
*1193 _303_
*1194 _304_
*1195 _305_
*1196 _306_
*1197 _307_
*1198 _308_
*1199 _309_
*1200 _310_
*1201 _311_
*1202 _312_
*1203 _313_
*1204 _314_
*1205 _315_
*1206 _316_
*1207 _317_
*1208 _318_
*1209 _319_
*1210 _320_
*1211 _321_
*1212 _322_
*1213 _323_
*1214 _324_
*1215 _325_
*1216 _326_
*1217 _327_
*1218 _328_
*1219 _329_
*1220 _330_
*1221 _331_
*1222 _332_
*1223 _333_
*1224 _334_
*1225 _335_
*1226 _336_
*1227 _337_
*1228 _338_
*1229 _339_
*1230 _340_
*1231 _341_
*1232 _342_
*1233 _343_
*1234 _344_
*1235 _345_
*1236 _346_
*1237 _347_
*1238 _348_
*1239 _349_
*1240 _350_
*1241 _351_
*1242 _352_
*1243 _353_
*1244 _354_
*1245 _355_
*1246 _356_
*1247 _357_
*1248 _358_
*1249 _359_
*1250 _360_
*1251 _361_
*1252 _362_
*1253 _363_
*1254 _364_
*1255 _365_
*1256 _366_
*1257 _367_
*1258 _368_
*1259 _369_
*1260 _370_
*1261 _371_
*1262 _372_
*1263 _373_
*1264 _374_
*1265 _375_
*1266 _376_
*1267 _377_
*1268 _378_
*1269 _379_
*1270 _380_
*1271 _381_
*1272 _382_
*1273 _383_
*1274 _384_
*1275 _385_
*1276 _386_
*1277 _387_
*1278 _388_
*1279 _389_
*1280 _390_
*1281 _391_
*1282 _392_
*1283 _393_
*1284 _394_
*1285 _395_
*1286 _396_
*1287 _397_
*1288 _398_
*1289 _399_
*1290 _400_
*1291 _401_
*1292 _402_
*1293 _403_
*1294 _404_
*1295 _405_
*1296 _406_
*1297 _407_
*1298 _408_
*1299 _409_
*1300 _410_
*1301 _411_
*1302 _412_
*1303 _413_
*1304 _414_
*1305 _415_
*1306 _416_
*1307 _417_
*1308 _418_
*1309 _419_
*1310 _420_
*1311 _421_
*1312 _422_
*1313 _423_
*1314 _424_
*1315 _425_
*1316 _426_
*1317 _427_
*1318 _428_
*1319 _429_
*1320 _430_
*1321 _431_
*1322 _432_
*1323 _433_
*1324 _434_
*1325 _435_
*1326 _436_
*1327 _437_
*1328 _438_
*1329 _439_
*1330 _440_
*1331 _441_
*1332 _442_
*1333 _443_
*1334 _444_
*1335 _445_
*1336 _446_
*1337 _447_
*1338 _448_
*1339 _449_
*1340 _450_
*1341 _451_
*1342 _452_
*1343 _453_
*1344 _454_
*1345 _455_
*1346 _456_
*1347 _457_
*1348 _458_
*1349 _459_
*1350 _460_
*1351 _461_
*1352 _462_
*1353 _463_
*1354 _464_
*1355 _465_
*1356 _466_
*1357 _467_
*1358 _468_
*1359 _469_
*1360 _470_
*1361 _471_
*1362 _472_
*1363 _473_
*1364 _474_
*1365 _475_
*1366 _476_
*1367 _477_
*1368 clockp_buffer_0
*1369 clockp_buffer_1
*1370 ringosc\.dstage\[0\]\.id\.delaybuf0
*1371 ringosc\.dstage\[0\]\.id\.delaybuf1
*1372 ringosc\.dstage\[0\]\.id\.delayen0
*1373 ringosc\.dstage\[0\]\.id\.delayen1
*1374 ringosc\.dstage\[0\]\.id\.delayenb0
*1375 ringosc\.dstage\[0\]\.id\.delayenb1
*1376 ringosc\.dstage\[0\]\.id\.delayint0
*1377 ringosc\.dstage\[10\]\.id\.delaybuf0
*1378 ringosc\.dstage\[10\]\.id\.delaybuf1
*1379 ringosc\.dstage\[10\]\.id\.delayen0
*1380 ringosc\.dstage\[10\]\.id\.delayen1
*1381 ringosc\.dstage\[10\]\.id\.delayenb0
*1382 ringosc\.dstage\[10\]\.id\.delayenb1
*1383 ringosc\.dstage\[10\]\.id\.delayint0
*1384 ringosc\.dstage\[11\]\.id\.delaybuf0
*1385 ringosc\.dstage\[11\]\.id\.delaybuf1
*1386 ringosc\.dstage\[11\]\.id\.delayen0
*1387 ringosc\.dstage\[11\]\.id\.delayen1
*1388 ringosc\.dstage\[11\]\.id\.delayenb0
*1389 ringosc\.dstage\[11\]\.id\.delayenb1
*1390 ringosc\.dstage\[11\]\.id\.delayint0
*1391 ringosc\.dstage\[1\]\.id\.delaybuf0
*1392 ringosc\.dstage\[1\]\.id\.delaybuf1
*1393 ringosc\.dstage\[1\]\.id\.delayen0
*1394 ringosc\.dstage\[1\]\.id\.delayen1
*1395 ringosc\.dstage\[1\]\.id\.delayenb0
*1396 ringosc\.dstage\[1\]\.id\.delayenb1
*1397 ringosc\.dstage\[1\]\.id\.delayint0
*1398 ringosc\.dstage\[2\]\.id\.delaybuf0
*1399 ringosc\.dstage\[2\]\.id\.delaybuf1
*1400 ringosc\.dstage\[2\]\.id\.delayen0
*1401 ringosc\.dstage\[2\]\.id\.delayen1
*1402 ringosc\.dstage\[2\]\.id\.delayenb0
*1403 ringosc\.dstage\[2\]\.id\.delayenb1
*1404 ringosc\.dstage\[2\]\.id\.delayint0
*1405 ringosc\.dstage\[3\]\.id\.delaybuf0
*1406 ringosc\.dstage\[3\]\.id\.delaybuf1
*1407 ringosc\.dstage\[3\]\.id\.delayen0
*1408 ringosc\.dstage\[3\]\.id\.delayen1
*1409 ringosc\.dstage\[3\]\.id\.delayenb0
*1410 ringosc\.dstage\[3\]\.id\.delayenb1
*1411 ringosc\.dstage\[3\]\.id\.delayint0
*1412 ringosc\.dstage\[4\]\.id\.delaybuf0
*1413 ringosc\.dstage\[4\]\.id\.delaybuf1
*1414 ringosc\.dstage\[4\]\.id\.delayen0
*1415 ringosc\.dstage\[4\]\.id\.delayen1
*1416 ringosc\.dstage\[4\]\.id\.delayenb0
*1417 ringosc\.dstage\[4\]\.id\.delayenb1
*1418 ringosc\.dstage\[4\]\.id\.delayint0
*1419 ringosc\.dstage\[5\]\.id\.delaybuf0
*1420 ringosc\.dstage\[5\]\.id\.delaybuf1
*1421 ringosc\.dstage\[5\]\.id\.delayen0
*1422 ringosc\.dstage\[5\]\.id\.delayen1
*1423 ringosc\.dstage\[5\]\.id\.delayenb0
*1424 ringosc\.dstage\[5\]\.id\.delayenb1
*1425 ringosc\.dstage\[5\]\.id\.delayint0
*1426 ringosc\.dstage\[6\]\.id\.delaybuf0
*1427 ringosc\.dstage\[6\]\.id\.delaybuf1
*1428 ringosc\.dstage\[6\]\.id\.delayen0
*1429 ringosc\.dstage\[6\]\.id\.delayen1
*1430 ringosc\.dstage\[6\]\.id\.delayenb0
*1431 ringosc\.dstage\[6\]\.id\.delayenb1
*1432 ringosc\.dstage\[6\]\.id\.delayint0
*1433 ringosc\.dstage\[7\]\.id\.delaybuf0
*1434 ringosc\.dstage\[7\]\.id\.delaybuf1
*1435 ringosc\.dstage\[7\]\.id\.delayen0
*1436 ringosc\.dstage\[7\]\.id\.delayen1
*1437 ringosc\.dstage\[7\]\.id\.delayenb0
*1438 ringosc\.dstage\[7\]\.id\.delayenb1
*1439 ringosc\.dstage\[7\]\.id\.delayint0
*1440 ringosc\.dstage\[8\]\.id\.delaybuf0
*1441 ringosc\.dstage\[8\]\.id\.delaybuf1
*1442 ringosc\.dstage\[8\]\.id\.delayen0
*1443 ringosc\.dstage\[8\]\.id\.delayen1
*1444 ringosc\.dstage\[8\]\.id\.delayenb0
*1445 ringosc\.dstage\[8\]\.id\.delayenb1
*1446 ringosc\.dstage\[8\]\.id\.delayint0
*1447 ringosc\.dstage\[9\]\.id\.delaybuf0
*1448 ringosc\.dstage\[9\]\.id\.delaybuf1
*1449 ringosc\.dstage\[9\]\.id\.delayen0
*1450 ringosc\.dstage\[9\]\.id\.delayen1
*1451 ringosc\.dstage\[9\]\.id\.delayenb0
*1452 ringosc\.dstage\[9\]\.id\.delayenb1
*1453 ringosc\.dstage\[9\]\.id\.delayint0
*1454 ringosc\.ibufp00
*1455 ringosc\.ibufp01
*1456 ringosc\.ibufp10
*1457 ringosc\.ibufp11
*1458 ringosc\.iss\.const1
*1459 ringosc\.iss\.ctrlen0
*1460 ringosc\.iss\.delaybuf0
*1461 ringosc\.iss\.delayen0
*1462 ringosc\.iss\.delayen1
*1463 ringosc\.iss\.delayenb0
*1464 ringosc\.iss\.delayenb1
*1465 ringosc\.iss\.delayint0
*1466 ringosc\.iss\.reseten0

*PORTS
clockp[0] O
clockp[1] O
dco I
div[0] I
div[1] I
div[2] I
div[3] I
div[4] I
enable I
ext_trim[0] I
ext_trim[10] I
ext_trim[11] I
ext_trim[12] I
ext_trim[13] I
ext_trim[14] I
ext_trim[15] I
ext_trim[16] I
ext_trim[17] I
ext_trim[18] I
ext_trim[19] I
ext_trim[1] I
ext_trim[20] I
ext_trim[21] I
ext_trim[22] I
ext_trim[23] I
ext_trim[24] I
ext_trim[25] I
ext_trim[2] I
ext_trim[3] I
ext_trim[4] I
ext_trim[5] I
ext_trim[6] I
ext_trim[7] I
ext_trim[8] I
ext_trim[9] I
osc I
resetb I

*D_NET *3 0.000506503
*CONN
*P clockp[0] O
*I *1368:X O *D sky130_fd_sc_hd__clkbuf_16
*CAP
1 clockp[0] 0.000253251
2 *1368:X 0.000253251
3 clockp[0] clockp[1] 0
*RES
1 *1368:X clockp[0] 18.4985 
*END

*D_NET *4 0.00611638
*CONN
*P clockp[1] O
*I *1369:X O *D sky130_fd_sc_hd__clkbuf_16
*CAP
1 clockp[1] 0.00174472
2 *1369:X 0.00174472
3 clockp[1] *375:DIODE 0
4 clockp[1] *377:DIODE 7.79781e-06
5 clockp[1] *1117:A 3.95183e-05
6 clockp[1] *1145:B 0.000112667
7 clockp[1] *1146:A 0.0001746
8 clockp[1] *1147:C 0.000164969
9 clockp[1] *1161:A3 0
10 clockp[1] *1177:A2 2.82057e-05
11 clockp[1] *1180:A_N 3.77051e-05
12 clockp[1] *1180:B 0.00127812
13 clockp[1] *6:7 0
14 clockp[1] *6:8 9.10431e-06
15 clockp[1] *6:10 9.11365e-06
16 clockp[1] *11:10 0.000765136
17 clockp[1] *112:9 0
18 clockp[1] *154:11 0
19 clockp[1] *254:8 0
20 clockp[0] clockp[1] 0
*RES
1 *1369:X clockp[1] 44.6165 
*END

*D_NET *5 0.0197584
*CONN
*P dco I
*I *388:DIODE I *D sky130_fd_sc_hd__diode_2
*I *1238:A I *D sky130_fd_sc_hd__buf_2
*I *1248:A I *D sky130_fd_sc_hd__nor2_2
*I *1264:B1 I *D sky130_fd_sc_hd__a21oi_2
*I *390:DIODE I *D sky130_fd_sc_hd__diode_2
*I *1251:B I *D sky130_fd_sc_hd__nor2_2
*I *1269:A I *D sky130_fd_sc_hd__buf_2
*I *398:DIODE I *D sky130_fd_sc_hd__diode_2
*I *395:DIODE I *D sky130_fd_sc_hd__diode_2
*I *386:DIODE I *D sky130_fd_sc_hd__diode_2
*I *1239:A I *D sky130_fd_sc_hd__buf_2
*I *385:DIODE I *D sky130_fd_sc_hd__diode_2
*I *426:DIODE I *D sky130_fd_sc_hd__diode_2
*I *1337:A I *D sky130_fd_sc_hd__buf_2
*CAP
1 dco 0.00111937
2 *388:DIODE 0.000186032
3 *1238:A 7.76628e-05
4 *1248:A 0.000141125
5 *1264:B1 9.14682e-05
6 *390:DIODE 0.000303131
7 *1251:B 0
8 *1269:A 0
9 *398:DIODE 0
10 *395:DIODE 0
11 *386:DIODE 0
12 *1239:A 0
13 *385:DIODE 0
14 *426:DIODE 3.92213e-05
15 *1337:A 0.000188623
16 *5:113 0.000750582
17 *5:96 0.000504441
18 *5:90 0.000793696
19 *5:74 0.000960148
20 *5:65 0.000458932
21 *5:56 0.000566892
22 *5:44 0.00056581
23 *5:18 0.000377723
24 *5:16 0.000245475
25 *5:14 0.000465705
26 *5:13 0.000368292
27 *5:11 0.000474358
28 *5:8 0.0017021
29 *388:DIODE *1395:TE_B 0
30 *388:DIODE *36:16 2.05938e-05
31 *388:DIODE *200:28 0.000104474
32 *390:DIODE *1291:B 0.000113385
33 *390:DIODE *30:23 5.19775e-05
34 *390:DIODE *234:7 7.02611e-05
35 *390:DIODE *275:30 0.000122933
36 *426:DIODE *135:13 5.52302e-05
37 *1238:A *1275:B1 0.000125057
38 *1238:A *37:20 0.000271352
39 *1248:A *1242:A 0.000127984
40 *1248:A *1279:A1 2.14658e-05