*SPEF "ieee 1481-1999"
*DESIGN "mprj_logic_high"
*DATE "11:11:11 Fri 11 11, 1111"
*VENDOR "OpenRCX"
*PROGRAM "Parallel Extraction"
*VERSION "1.0"
*DESIGN_FLOW "NAME_SCOPE LOCAL" "PIN_CAP NONE"
*DIVIDER /
*DELIMITER :
*BUS_DELIMITER []
*T_UNIT 1 NS
*C_UNIT 1 PF
*R_UNIT 1 OHM
*L_UNIT 1 HENRY

*NAME_MAP
*1 HI[0]
*2 HI[100]
*3 HI[101]
*4 HI[102]
*5 HI[103]
*6 HI[104]
*7 HI[105]
*8 HI[106]
*9 HI[107]
*10 HI[108]
*11 HI[109]
*12 HI[10]
*13 HI[110]
*14 HI[111]
*15 HI[112]
*16 HI[113]
*17 HI[114]
*18 HI[115]
*19 HI[116]
*20 HI[117]
*21 HI[118]
*22 HI[119]
*23 HI[11]
*24 HI[120]
*25 HI[121]
*26 HI[122]
*27 HI[123]
*28 HI[124]
*29 HI[125]
*30 HI[126]
*31 HI[127]
*32 HI[128]
*33 HI[129]
*34 HI[12]
*35 HI[130]
*36 HI[131]
*37 HI[132]
*38 HI[133]
*39 HI[134]
*40 HI[135]
*41 HI[136]
*42 HI[137]
*43 HI[138]
*44 HI[139]
*45 HI[13]
*46 HI[140]
*47 HI[141]
*48 HI[142]
*49 HI[143]
*50 HI[144]
*51 HI[145]
*52 HI[146]
*53 HI[147]
*54 HI[148]
*55 HI[149]
*56 HI[14]
*57 HI[150]
*58 HI[151]
*59 HI[152]
*60 HI[153]
*61 HI[154]
*62 HI[155]
*63 HI[156]
*64 HI[157]
*65 HI[158]
*66 HI[159]
*67 HI[15]
*68 HI[160]
*69 HI[161]
*70 HI[162]
*71 HI[163]
*72 HI[164]
*73 HI[165]
*74 HI[166]
*75 HI[167]
*76 HI[168]
*77 HI[169]
*78 HI[16]
*79 HI[170]
*80 HI[171]
*81 HI[172]
*82 HI[173]
*83 HI[174]
*84 HI[175]
*85 HI[176]
*86 HI[177]
*87 HI[178]
*88 HI[179]
*89 HI[17]
*90 HI[180]
*91 HI[181]
*92 HI[182]
*93 HI[183]
*94 HI[184]
*95 HI[185]
*96 HI[186]
*97 HI[187]
*98 HI[188]
*99 HI[189]
*100 HI[18]
*101 HI[190]
*102 HI[191]
*103 HI[192]
*104 HI[193]
*105 HI[194]
*106 HI[195]
*107 HI[196]
*108 HI[197]
*109 HI[198]
*110 HI[199]
*111 HI[19]
*112 HI[1]
*113 HI[200]
*114 HI[201]
*115 HI[202]
*116 HI[203]
*117 HI[204]
*118 HI[205]
*119 HI[206]
*120 HI[207]
*121 HI[208]
*122 HI[209]
*123 HI[20]
*124 HI[210]
*125 HI[211]
*126 HI[212]
*127 HI[213]
*128 HI[214]
*129 HI[215]
*130 HI[216]
*131 HI[217]
*132 HI[218]
*133 HI[219]
*134 HI[21]
*135 HI[220]
*136 HI[221]
*137 HI[222]
*138 HI[223]
*139 HI[224]
*140 HI[225]
*141 HI[226]
*142 HI[227]
*143 HI[228]
*144 HI[229]
*145 HI[22]
*146 HI[230]
*147 HI[231]
*148 HI[232]
*149 HI[233]
*150 HI[234]
*151 HI[235]
*152 HI[236]
*153 HI[237]
*154 HI[238]
*155 HI[239]
*156 HI[23]
*157 HI[240]
*158 HI[241]
*159 HI[242]
*160 HI[243]
*161 HI[244]
*162 HI[245]
*163 HI[246]
*164 HI[247]
*165 HI[248]
*166 HI[249]
*167 HI[24]
*168 HI[250]
*169 HI[251]
*170 HI[252]
*171 HI[253]
*172 HI[254]
*173 HI[255]
*174 HI[256]
*175 HI[257]
*176 HI[258]
*177 HI[259]
*178 HI[25]
*179 HI[260]
*180 HI[261]
*181 HI[262]
*182 HI[263]
*183 HI[264]
*184 HI[265]
*185 HI[266]
*186 HI[267]
*187 HI[268]
*188 HI[269]
*189 HI[26]
*190 HI[270]
*191 HI[271]
*192 HI[272]
*193 HI[273]
*194 HI[274]
*195 HI[275]
*196 HI[276]
*197 HI[277]
*198 HI[278]
*199 HI[279]
*200 HI[27]
*201 HI[280]
*202 HI[281]
*203 HI[282]
*204 HI[283]
*205 HI[284]
*206 HI[285]
*207 HI[286]
*208 HI[287]
*209 HI[288]
*210 HI[289]
*211 HI[28]
*212 HI[290]
*213 HI[291]
*214 HI[292]
*215 HI[293]
*216 HI[294]
*217 HI[295]
*218 HI[296]
*219 HI[297]
*220 HI[298]
*221 HI[299]
*222 HI[29]
*223 HI[2]
*224 HI[300]
*225 HI[301]
*226 HI[302]
*227 HI[303]
*228 HI[304]
*229 HI[305]
*230 HI[306]
*231 HI[307]
*232 HI[308]
*233 HI[309]
*234 HI[30]
*235 HI[310]
*236 HI[311]
*237 HI[312]
*238 HI[313]
*239 HI[314]
*240 HI[315]
*241 HI[316]
*242 HI[317]
*243 HI[318]
*244 HI[319]
*245 HI[31]
*246 HI[320]
*247 HI[321]
*248 HI[322]
*249 HI[323]
*250 HI[324]
*251 HI[325]
*252 HI[326]
*253 HI[327]
*254 HI[328]
*255 HI[329]
*256 HI[32]
*257 HI[330]
*258 HI[331]
*259 HI[332]
*260 HI[333]
*261 HI[334]
*262 HI[335]
*263 HI[336]
*264 HI[337]
*265 HI[338]
*266 HI[339]
*267 HI[33]
*268 HI[340]
*269 HI[341]
*270 HI[342]
*271 HI[343]
*272 HI[344]
*273 HI[345]
*274 HI[346]
*275 HI[347]
*276 HI[348]
*277 HI[349]
*278 HI[34]
*279 HI[350]
*280 HI[351]
*281 HI[352]
*282 HI[353]
*283 HI[354]
*284 HI[355]
*285 HI[356]
*286 HI[357]
*287 HI[358]
*288 HI[359]
*289 HI[35]
*290 HI[360]
*291 HI[361]
*292 HI[362]
*293 HI[363]
*294 HI[364]
*295 HI[365]
*296 HI[366]
*297 HI[367]
*298 HI[368]
*299 HI[369]
*300 HI[36]
*301 HI[370]
*302 HI[371]
*303 HI[372]
*304 HI[373]
*305 HI[374]
*306 HI[375]
*307 HI[376]
*308 HI[377]
*309 HI[378]
*310 HI[379]
*311 HI[37]
*312 HI[380]
*313 HI[381]
*314 HI[382]
*315 HI[383]
*316 HI[384]
*317 HI[385]
*318 HI[386]
*319 HI[387]
*320 HI[388]
*321 HI[389]
*322 HI[38]
*323 HI[390]
*324 HI[391]
*325 HI[392]
*326 HI[393]
*327 HI[394]
*328 HI[395]
*329 HI[396]
*330 HI[397]
*331 HI[398]
*332 HI[399]
*333 HI[39]
*334 HI[3]
*335 HI[400]
*336 HI[401]
*337 HI[402]
*338 HI[403]
*339 HI[404]
*340 HI[405]
*341 HI[406]
*342 HI[407]
*343 HI[408]
*344 HI[409]
*345 HI[40]
*346 HI[410]
*347 HI[411]
*348 HI[412]
*349 HI[413]
*350 HI[414]
*351 HI[415]
*352 HI[416]
*353 HI[417]
*354 HI[418]
*355 HI[419]
*356 HI[41]
*357 HI[420]
*358 HI[421]
*359 HI[422]
*360 HI[423]
*361 HI[424]
*362 HI[425]
*363 HI[426]
*364 HI[427]
*365 HI[428]
*366 HI[429]
*367 HI[42]
*368 HI[430]
*369 HI[431]
*370 HI[432]
*371 HI[433]
*372 HI[434]
*373 HI[435]
*374 HI[436]
*375 HI[437]
*376 HI[438]
*377 HI[439]
*378 HI[43]
*379 HI[440]
*380 HI[441]
*381 HI[442]
*382 HI[443]
*383 HI[444]
*384 HI[445]
*385 HI[446]
*386 HI[447]
*387 HI[448]
*388 HI[449]
*389 HI[44]
*390 HI[450]
*391 HI[451]
*392 HI[452]
*393 HI[453]
*394 HI[454]
*395 HI[455]
*396 HI[456]
*397 HI[457]
*398 HI[458]
*399 HI[459]
*400 HI[45]
*401 HI[460]
*402 HI[461]
*403 HI[462]
*404 HI[46]
*405 HI[47]
*406 HI[48]
*407 HI[49]
*408 HI[4]
*409 HI[50]
*410 HI[51]
*411 HI[52]
*412 HI[53]
*413 HI[54]
*414 HI[55]
*415 HI[56]
*416 HI[57]
*417 HI[58]
*418 HI[59]
*419 HI[5]
*420 HI[60]
*421 HI[61]
*422 HI[62]
*423 HI[63]
*424 HI[64]
*425 HI[65]
*426 HI[66]
*427 HI[67]
*428 HI[68]
*429 HI[69]
*430 HI[6]
*431 HI[70]
*432 HI[71]
*433 HI[72]
*434 HI[73]
*435 HI[74]
*436 HI[75]
*437 HI[76]
*438 HI[77]
*439 HI[78]
*440 HI[79]
*441 HI[7]
*442 HI[80]
*443 HI[81]
*444 HI[82]
*445 HI[83]
*446 HI[84]
*447 HI[85]
*448 HI[86]
*449 HI[87]
*450 HI[88]
*451 HI[89]
*452 HI[8]
*453 HI[90]
*454 HI[91]
*455 HI[92]
*456 HI[93]
*457 HI[94]
*458 HI[95]
*459 HI[96]
*460 HI[97]
*461 HI[98]
*462 HI[99]
*463 HI[9]
*464 FILLER_0_111
*465 FILLER_0_119
*466 FILLER_0_139
*467 FILLER_0_141
*468 FILLER_0_166
*469 FILLER_0_172
*470 FILLER_0_194
*471 FILLER_0_228
*472 FILLER_0_245
*473 FILLER_0_259
*474 FILLER_0_279
*475 FILLER_0_284
*476 FILLER_0_29
*477 FILLER_0_3
*478 FILLER_0_306
*479 FILLER_0_309
*480 FILLER_0_334
*481 FILLER_0_421
*482 FILLER_0_446
*483 FILLER_0_458
*484 FILLER_0_474
*485 FILLER_0_483
*486 FILLER_0_502
*487 FILLER_0_55
*488 FILLER_0_57
*489 FILLER_0_601
*490 FILLER_0_613
*491 FILLER_0_617
*492 FILLER_0_629
*493 FILLER_0_641
*494 FILLER_0_645
*495 FILLER_0_657
*496 FILLER_0_669
*497 FILLER_0_67
*498 FILLER_0_673
*499 FILLER_0_685
*500 FILLER_0_697
*501 FILLER_0_701
*502 FILLER_0_713
*503 FILLER_0_725
*504 FILLER_0_729
*505 FILLER_0_77
*506 FILLER_0_94
*507 FILLER_1_108
*508 FILLER_1_113
*509 FILLER_1_117
*510 FILLER_1_121
*511 FILLER_1_133
*512 FILLER_1_142
*513 FILLER_1_154
*514 FILLER_1_166
*515 FILLER_1_172
*516 FILLER_1_184
*517 FILLER_1_196
*518 FILLER_1_204
*519 FILLER_1_209
*520 FILLER_1_221
*521 FILLER_1_225
*522 FILLER_1_230
*523 FILLER_1_242
*524 FILLER_1_254
*525 FILLER_1_261
*526 FILLER_1_273
*527 FILLER_1_279
*528 FILLER_1_281
*529 FILLER_1_293
*530 FILLER_1_3
*531 FILLER_1_301
*532 FILLER_1_307
*533 FILLER_1_319
*534 FILLER_1_327
*535 FILLER_1_331
*536 FILLER_1_335
*537 FILLER_1_337
*538 FILLER_1_343
*539 FILLER_1_355
*540 FILLER_1_367
*541 FILLER_1_379
*542 FILLER_1_391
*543 FILLER_1_393
*544 FILLER_1_405
*545 FILLER_1_417
*546 FILLER_1_429
*547 FILLER_1_441
*548 FILLER_1_447
*549 FILLER_1_449
*550 FILLER_1_461
*551 FILLER_1_467
*552 FILLER_1_471
*553 FILLER_1_479
*554 FILLER_1_484
*555 FILLER_1_490
*556 FILLER_1_502
*557 FILLER_1_505
*558 FILLER_1_517
*559 FILLER_1_529
*560 FILLER_1_541
*561 FILLER_1_55
*562 FILLER_1_553
*563 FILLER_1_557
*564 FILLER_1_561
*565 FILLER_1_573
*566 FILLER_1_585
*567 FILLER_1_597
*568 FILLER_1_609
*569 FILLER_1_615
*570 FILLER_1_617
*571 FILLER_1_629
*572 FILLER_1_63
*573 FILLER_1_641
*574 FILLER_1_653
*575 FILLER_1_665
*576 FILLER_1_671
*577 FILLER_1_673
*578 FILLER_1_68
*579 FILLER_1_685
*580 FILLER_1_697
*581 FILLER_1_709
*582 FILLER_1_721
*583 FILLER_1_727
*584 FILLER_1_729
*585 FILLER_1_80
*586 FILLER_1_92
*587 FILLER_1_96
*588 FILLER_2_109
*589 FILLER_2_11
*590 FILLER_2_118
*591 FILLER_2_130
*592 FILLER_2_138
*593 FILLER_2_141
*594 FILLER_2_153
*595 FILLER_2_165
*596 FILLER_2_177
*597 FILLER_2_189
*598 FILLER_2_195
*599 FILLER_2_197
*600 FILLER_2_209
*601 FILLER_2_221
*602 FILLER_2_233
*603 FILLER_2_245
*604 FILLER_2_251
*605 FILLER_2_253
*606 FILLER_2_265
*607 FILLER_2_277
*608 FILLER_2_289
*609 FILLER_2_29
*610 FILLER_2_297
*611 FILLER_2_3
*612 FILLER_2_302
*613 FILLER_2_309
*614 FILLER_2_321
*615 FILLER_2_333
*616 FILLER_2_345
*617 FILLER_2_357
*618 FILLER_2_363
*619 FILLER_2_365
*620 FILLER_2_377
*621 FILLER_2_386
*622 FILLER_2_398
*623 FILLER_2_410
*624 FILLER_2_418
*625 FILLER_2_421
*626 FILLER_2_433
*627 FILLER_2_442
*628 FILLER_2_454
*629 FILLER_2_466
*630 FILLER_2_470
*631 FILLER_2_477
*632 FILLER_2_502
*633 FILLER_2_514
*634 FILLER_2_52
*635 FILLER_2_526
*636 FILLER_2_533
*637 FILLER_2_545
*638 FILLER_2_557
*639 FILLER_2_569
*640 FILLER_2_581
*641 FILLER_2_587
*642 FILLER_2_589
*643 FILLER_2_60
*644 FILLER_2_601
*645 FILLER_2_613
*646 FILLER_2_625
*647 FILLER_2_637
*648 FILLER_2_643
*649 FILLER_2_645
*650 FILLER_2_657
*651 FILLER_2_669
*652 FILLER_2_681
*653 FILLER_2_689
*654 FILLER_2_695
*655 FILLER_2_710
*656 FILLER_2_72
*657 FILLER_2_722
*658 FILLER_2_730
*659 FILLER_2_85
*660 FILLER_2_97
*661 FILLER_3_116
*662 FILLER_3_139
*663 FILLER_3_141
*664 FILLER_3_166
*665 FILLER_3_29
*666 FILLER_3_3
*667 FILLER_3_40
*668 FILLER_3_486
*669 FILLER_3_498
*670 FILLER_3_50
*671 FILLER_3_511
*672 FILLER_3_530
*673 FILLER_3_54
*674 FILLER_3_722
*675 FILLER_3_729
*676 FILLER_3_9
*677 PHY_0
*678 PHY_1
*679 PHY_2
*680 PHY_3
*681 PHY_4
*682 PHY_5
*683 PHY_6
*684 PHY_7
*685 TAP_10
*686 TAP_11
*687 TAP_12
*688 TAP_13
*689 TAP_14
*690 TAP_15
*691 TAP_16
*692 TAP_17
*693 TAP_18
*694 TAP_19
*695 TAP_20
*696 TAP_21
*697 TAP_22
*698 TAP_23
*699 TAP_24
*700 TAP_25
*701 TAP_26
*702 TAP_27
*703 TAP_28
*704 TAP_29
*705 TAP_30
*706 TAP_31
*707 TAP_32
*708 TAP_33
*709 TAP_34
*710 TAP_35
*711 TAP_36
*712 TAP_37
*713 TAP_38
*714 TAP_39
*715 TAP_40
*716 TAP_41
*717 TAP_42
*718 TAP_43
*719 TAP_44
*720 TAP_45
*721 TAP_46
*722 TAP_47
*723 TAP_48
*724 TAP_49
*725 TAP_50
*726 TAP_51
*727 TAP_52
*728 TAP_53
*729 TAP_54
*730 TAP_55
*731 TAP_56
*732 TAP_57
*733 TAP_58
*734 TAP_59
*735 TAP_60
*736 TAP_61
*737 TAP_62
*738 TAP_63
*739 TAP_64
*740 TAP_65
*741 TAP_66
*742 TAP_67
*743 TAP_68
*744 TAP_69
*745 TAP_70
*746 TAP_71
*747 TAP_72
*748 TAP_73
*749 TAP_74
*750 TAP_75
*751 TAP_76
*752 TAP_77
*753 TAP_78
*754 TAP_79
*755 TAP_8
*756 TAP_80
*757 TAP_81
*758 TAP_82
*759 TAP_83
*760 TAP_84
*761 TAP_85
*762 TAP_9
*763 insts\[0\]
*764 insts\[100\]
*765 insts\[101\]
*766 insts\[102\]
*767 insts\[103\]
*768 insts\[104\]
*769 insts\[105\]
*770 insts\[106\]
*771 insts\[107\]
*772 insts\[108\]
*773 insts\[109\]
*774 insts\[10\]
*775 insts\[110\]
*776 insts\[111\]
*777 insts\[112\]
*778 insts\[113\]
*779 insts\[114\]
*780 insts\[115\]
*781 insts\[116\]
*782 insts\[117\]
*783 insts\[118\]
*784 insts\[119\]
*785 insts\[11\]
*786 insts\[120\]
*787 insts\[121\]
*788 insts\[122\]
*789 insts\[123\]
*790 insts\[124\]
*791 insts\[125\]
*792 insts\[126\]
*793 insts\[127\]
*794 insts\[128\]
*795 insts\[129\]
*796 insts\[12\]
*797 insts\[130\]
*798 insts\[131\]
*799 insts\[132\]
*800 insts\[133\]
*801 insts\[134\]
*802 insts\[135\]
*803 insts\[136\]
*804 insts\[137\]
*805 insts\[138\]
*806 insts\[139\]
*807 insts\[13\]
*808 insts\[140\]
*809 insts\[141\]
*810 insts\[142\]
*811 insts\[143\]
*812 insts\[144\]
*813 insts\[145\]
*814 insts\[146\]
*815 insts\[147\]
*816 insts\[148\]
*817 insts\[149\]
*818 insts\[14\]
*819 insts\[150\]
*820 insts\[151\]
*821 insts\[152\]
*822 insts\[153\]
*823 insts\[154\]
*824 insts\[155\]
*825 insts\[156\]
*826 insts\[157\]
*827 insts\[158\]
*828 insts\[159\]
*829 insts\[15\]
*830 insts\[160\]
*831 insts\[161\]
*832 insts\[162\]
*833 insts\[163\]
*834 insts\[164\]
*835 insts\[165\]
*836 insts\[166\]
*837 insts\[167\]
*838 insts\[168\]
*839 insts\[169\]
*840 insts\[16\]
*841 insts\[170\]
*842 insts\[171\]
*843 insts\[172\]
*844 insts\[173\]
*845 insts\[174\]
*846 insts\[175\]
*847 insts\[176\]
*848 insts\[177\]
*849 insts\[178\]
*850 insts\[179\]
*851 insts\[17\]
*852 insts\[180\]
*853 insts\[181\]
*854 insts\[182\]
*855 insts\[183\]
*856 insts\[184\]
*857 insts\[185\]
*858 insts\[186\]
*859 insts\[187\]
*860 insts\[188\]
*861 insts\[189\]
*862 insts\[18\]
*863 insts\[190\]
*864 insts\[191\]
*865 insts\[192\]
*866 insts\[193\]
*867 insts\[194\]
*868 insts\[195\]
*869 insts\[196\]
*870 insts\[197\]
*871 insts\[198\]
*872 insts\[199\]
*873 insts\[19\]
*874 insts\[1\]
*875 insts\[200\]
*876 insts\[201\]
*877 insts\[202\]
*878 insts\[203\]
*879 insts\[204\]
*880 insts\[205\]
*881 insts\[206\]
*882 insts\[207\]
*883 insts\[208\]
*884 insts\[209\]
*885 insts\[20\]
*886 insts\[210\]
*887 insts\[211\]
*888 insts\[212\]
*889 insts\[213\]
*890 insts\[214\]
*891 insts\[215\]
*892 insts\[216\]
*893 insts\[217\]
*894 insts\[218\]
*895 insts\[219\]
*896 insts\[21\]
*897 insts\[220\]
*898 insts\[221\]
*899 insts\[222\]
*900 insts\[223\]
*901 insts\[224\]
*902 insts\[225\]
*903 insts\[226\]
*904 insts\[227\]
*905 insts\[228\]
*906 insts\[229\]
*907 insts\[22\]
*908 insts\[230\]
*909 insts\[231\]
*910 insts\[232\]
*911 insts\[233\]
*912 insts\[234\]
*913 insts\[235\]
*914 insts\[236\]
*915 insts\[237\]
*916 insts\[238\]
*917 insts\[239\]
*918 insts\[23\]
*919 insts\[240\]
*920 insts\[241\]
*921 insts\[242\]
*922 insts\[243\]
*923 insts\[244\]
*924 insts\[245\]
*925 insts\[246\]
*926 insts\[247\]
*927 insts\[248\]
*928 insts\[249\]
*929 insts\[24\]
*930 insts\[250\]
*931 insts\[251\]
*932 insts\[252\]
*933 insts\[253\]
*934 insts\[254\]
*935 insts\[255\]
*936 insts\[256\]
*937 insts\[257\]
*938 insts\[258\]
*939 insts\[259\]
*940 insts\[25\]
*941 insts\[260\]
*942 insts\[261\]
*943 insts\[262\]
*944 insts\[263\]
*945 insts\[264\]
*946 insts\[265\]
*947 insts\[266\]
*948 insts\[267\]
*949 insts\[268\]
*950 insts\[269\]
*951 insts\[26\]
*952 insts\[270\]
*953 insts\[271\]
*954 insts\[272\]
*955 insts\[273\]
*956 insts\[274\]
*957 insts\[275\]
*958 insts\[276\]
*959 insts\[277\]
*960 insts\[278\]
*961 insts\[279\]
*962 insts\[27\]
*963 insts\[280\]
*964 insts\[281\]
*965 insts\[282\]
*966 insts\[283\]
*967 insts\[284\]
*968 insts\[285\]
*969 insts\[286\]
*970 insts\[287\]
*971 insts\[288\]
*972 insts\[289\]
*973 insts\[28\]
*974 insts\[290\]
*975 insts\[291\]
*976 insts\[292\]
*977 insts\[293\]
*978 insts\[294\]
*979 insts\[295\]
*980 insts\[296\]
*981 insts\[297\]
*982 insts\[298\]
*983 insts\[299\]
*984 insts\[29\]
*985 insts\[2\]
*986 insts\[300\]
*987 insts\[301\]
*988 insts\[302\]
*989 insts\[303\]
*990 insts\[304\]
*991 insts\[305\]
*992 insts\[306\]
*993 insts\[307\]
*994 insts\[308\]
*995 insts\[309\]
*996 insts\[30\]
*997 insts\[310\]
*998 insts\[311\]
*999 insts\[312\]
*1000 insts\[313\]
*1001 insts\[314\]
*1002 insts\[315\]
*1003 insts\[316\]
*1004 insts\[317\]
*1005 insts\[318\]
*1006 insts\[319\]
*1007 insts\[31\]
*1008 insts\[320\]
*1009 insts\[321\]
*1010 insts\[322\]
*1011 insts\[323\]
*1012 insts\[324\]
*1013 insts\[325\]
*1014 insts\[326\]
*1015 insts\[327\]
*1016 insts\[328\]
*1017 insts\[329\]
*1018 insts\[32\]
*1019 insts\[330\]
*1020 insts\[331\]
*1021 insts\[332\]
*1022 insts\[333\]
*1023 insts\[334\]
*1024 insts\[335\]
*1025 insts\[336\]
*1026 insts\[337\]
*1027 insts\[338\]
*1028 insts\[339\]
*1029 insts\[33\]
*1030 insts\[340\]
*1031 insts\[341\]
*1032 insts\[342\]
*1033 insts\[343\]
*1034 insts\[344\]
*1035 insts\[345\]
*1036 insts\[346\]
*1037 insts\[347\]
*1038 insts\[348\]
*1039 insts\[349\]
*1040 insts\[34\]
*1041 insts\[350\]
*1042 insts\[351\]
*1043 insts\[352\]
*1044 insts\[353\]
*1045 insts\[354\]
*1046 insts\[355\]
*1047 insts\[356\]
*1048 insts\[357\]
*1049 insts\[358\]
*1050 insts\[359\]
*1051 insts\[35\]
*1052 insts\[360\]
*1053 insts\[361\]
*1054 insts\[362\]
*1055 insts\[363\]
*1056 insts\[364\]
*1057 insts\[365\]
*1058 insts\[366\]
*1059 insts\[367\]
*1060 insts\[368\]
*1061 insts\[369\]
*1062 insts\[36\]
*1063 insts\[370\]
*1064 insts\[371\]
*1065 insts\[372\]
*1066 insts\[373\]
*1067 insts\[374\]
*1068 insts\[375\]
*1069 insts\[376\]
*1070 insts\[377\]
*1071 insts\[378\]
*1072 insts\[379\]
*1073 insts\[37\]
*1074 insts\[380\]
*1075 insts\[381\]
*1076 insts\[382\]
*1077 insts\[383\]
*1078 insts\[384\]
*1079 insts\[385\]
*1080 insts\[386\]
*1081 insts\[387\]
*1082 insts\[388\]
*1083 insts\[389\]
*1084 insts\[38\]
*1085 insts\[390\]
*1086 insts\[391\]
*1087 insts\[392\]
*1088 insts\[393\]
*1089 insts\[394\]
*1090 insts\[395\]
*1091 insts\[396\]
*1092 insts\[397\]
*1093 insts\[398\]
*1094 insts\[399\]
*1095 insts\[39\]
*1096 insts\[3\]
*1097 insts\[400\]
*1098 insts\[401\]
*1099 insts\[402\]
*1100 insts\[403\]
*1101 insts\[404\]
*1102 insts\[405\]
*1103 insts\[406\]
*1104 insts\[407\]
*1105 insts\[408\]
*1106 insts\[409\]
*1107 insts\[40\]
*1108 insts\[410\]
*1109 insts\[411\]
*1110 insts\[412\]
*1111 insts\[413\]
*1112 insts\[414\]
*1113 insts\[415\]
*1114 insts\[416\]
*1115 insts\[417\]
*1116 insts\[418\]
*1117 insts\[419\]
*1118 insts\[41\]
*1119 insts\[420\]
*1120 insts\[421\]
*1121 insts\[422\]
*1122 insts\[423\]
*1123 insts\[424\]
*1124 insts\[425\]
*1125 insts\[426\]
*1126 insts\[427\]
*1127 insts\[428\]
*1128 insts\[429\]
*1129 insts\[42\]
*1130 insts\[430\]
*1131 insts\[431\]
*1132 insts\[432\]
*1133 insts\[433\]
*1134 insts\[434\]
*1135 insts\[435\]
*1136 insts\[436\]
*1137 insts\[437\]
*1138 insts\[438\]
*1139 insts\[439\]
*1140 insts\[43\]
*1141 insts\[440\]
*1142 insts\[441\]
*1143 insts\[442\]
*1144 insts\[443\]
*1145 insts\[444\]
*1146 insts\[445\]
*1147 insts\[446\]
*1148 insts\[447\]
*1149 insts\[448\]
*1150 insts\[449\]
*1151 insts\[44\]
*1152 insts\[450\]
*1153 insts\[451\]
*1154 insts\[452\]
*1155 insts\[453\]
*1156 insts\[454\]
*1157 insts\[455\]
*1158 insts\[456\]
*1159 insts\[457\]
*1160 insts\[458\]
*1161 insts\[459\]
*1162 insts\[45\]
*1163 insts\[460\]
*1164 insts\[461\]
*1165 insts\[462\]
*1166 insts\[46\]
*1167 insts\[47\]
*1168 insts\[48\]
*1169 insts\[49\]
*1170 insts\[4\]
*1171 insts\[50\]
*1172 insts\[51\]
*1173 insts\[52\]
*1174 insts\[53\]
*1175 insts\[54\]
*1176 insts\[55\]
*1177 insts\[56\]
*1178 insts\[57\]
*1179 insts\[58\]
*1180 insts\[59\]
*1181 insts\[5\]
*1182 insts\[60\]
*1183 insts\[61\]
*1184 insts\[62\]
*1185 insts\[63\]
*1186 insts\[64\]
*1187 insts\[65\]
*1188 insts\[66\]
*1189 insts\[67\]
*1190 insts\[68\]
*1191 insts\[69\]
*1192 insts\[6\]
*1193 insts\[70\]
*1194 insts\[71\]
*1195 insts\[72\]
*1196 insts\[73\]
*1197 insts\[74\]
*1198 insts\[75\]
*1199 insts\[76\]
*1200 insts\[77\]
*1201 insts\[78\]
*1202 insts\[79\]
*1203 insts\[7\]
*1204 insts\[80\]
*1205 insts\[81\]
*1206 insts\[82\]
*1207 insts\[83\]
*1208 insts\[84\]
*1209 insts\[85\]
*1210 insts\[86\]
*1211 insts\[87\]
*1212 insts\[88\]
*1213 insts\[89\]
*1214 insts\[8\]
*1215 insts\[90\]
*1216 insts\[91\]
*1217 insts\[92\]
*1218 insts\[93\]
*1219 insts\[94\]
*1220 insts\[95\]
*1221 insts\[96\]
*1222 insts\[97\]
*1223 insts\[98\]
*1224 insts\[99\]
*1225 insts\[9\]

*PORTS
HI[0] O
HI[100] O
HI[101] O
HI[102] O
HI[103] O
HI[104] O
HI[105] O
HI[106] O
HI[107] O
HI[108] O
HI[109] O
HI[10] O
HI[110] O
HI[111] O
HI[112] O
HI[113] O
HI[114] O
HI[115] O
HI[116] O
HI[117] O
HI[118] O
HI[119] O
HI[11] O
HI[120] O
HI[121] O
HI[122] O
HI[123] O
HI[124] O
HI[125] O
HI[126] O
HI[127] O
HI[128] O
HI[129] O
HI[12] O
HI[130] O
HI[131] O
HI[132] O
HI[133] O
HI[134] O
HI[135] O
HI[136] O
HI[137] O
HI[138] O
HI[139] O
HI[13] O
HI[140] O
HI[141] O
HI[142] O
HI[143] O
HI[144] O
HI[145] O
HI[146] O
HI[147] O
HI[148] O
HI[149] O
HI[14] O
HI[150] O
HI[151] O
HI[152] O
HI[153] O
HI[154] O
HI[155] O
HI[156] O
HI[157] O
HI[158] O
HI[159] O
HI[15] O
HI[160] O
HI[161] O
HI[162] O
HI[163] O
HI[164] O
HI[165] O
HI[166] O
HI[167] O
HI[168] O
HI[169] O
HI[16] O
HI[170] O
HI[171] O
HI[172] O
HI[173] O
HI[174] O
HI[175] O
HI[176] O
HI[177] O
HI[178] O
HI[179] O
HI[17] O
HI[180] O
HI[181] O
HI[182] O
HI[183] O
HI[184] O
HI[185] O
HI[186] O
HI[187] O
HI[188] O
HI[189] O
HI[18] O
HI[190] O
HI[191] O
HI[192] O
HI[193] O
HI[194] O
HI[195] O
HI[196] O
HI[197] O
HI[198] O
HI[199] O
HI[19] O
HI[1] O
HI[200] O
HI[201] O
HI[202] O
HI[203] O
HI[204] O
HI[205] O
HI[206] O
HI[207] O
HI[208] O
HI[209] O
HI[20] O
HI[210] O
HI[211] O
HI[212] O
HI[213] O
HI[214] O
HI[215] O
HI[216] O
HI[217] O
HI[218] O
HI[219] O
HI[21] O
HI[220] O
HI[221] O
HI[222] O
HI[223] O
HI[224] O
HI[225] O
HI[226] O
HI[227] O
HI[228] O
HI[229] O
HI[22] O
HI[230] O
HI[231] O
HI[232] O
HI[233] O
HI[234] O
HI[235] O
HI[236] O
HI[237] O
HI[238] O
HI[239] O
HI[23] O
HI[240] O
HI[241] O
HI[242] O
HI[243] O
HI[244] O
HI[245] O
HI[246] O
HI[247] O
HI[248] O
HI[249] O
HI[24] O
HI[250] O
HI[251] O
HI[252] O
HI[253] O
HI[254] O
HI[255] O
HI[256] O
HI[257] O
HI[258] O
HI[259] O
HI[25] O
HI[260] O
HI[261] O
HI[262] O
HI[263] O
HI[264] O
HI[265] O
HI[266] O
HI[267] O
HI[268] O
HI[269] O
HI[26] O
HI[270] O
HI[271] O
HI[272] O
HI[273] O
HI[274] O
HI[275] O
HI[276] O
HI[277] O
HI[278] O
HI[279] O
HI[27] O
HI[280] O
HI[281] O
HI[282] O
HI[283] O
HI[284] O
HI[285] O
HI[286] O
HI[287] O
HI[288] O
HI[289] O
HI[28] O
HI[290] O
HI[291] O
HI[292] O
HI[293] O
HI[294] O
HI[295] O
HI[296] O
HI[297] O
HI[298] O
HI[299] O
HI[29] O
HI[2] O
HI[300] O
HI[301] O
HI[302] O
HI[303] O
HI[304] O
HI[305] O
HI[306] O
HI[307] O
HI[308] O
HI[309] O
HI[30] O
HI[310] O
HI[311] O
HI[312] O
HI[313] O
HI[314] O
HI[315] O
HI[316] O
HI[317] O
HI[318] O
HI[319] O
HI[31] O
HI[320] O
HI[321] O
HI[322] O
HI[323] O
HI[324] O
HI[325] O
HI[326] O
HI[327] O
HI[328] O
HI[329] O
HI[32] O
HI[330] O
HI[331] O
HI[332] O
HI[333] O
HI[334] O
HI[335] O
HI[336] O
HI[337] O
HI[338] O
HI[339] O
HI[33] O
HI[340] O
HI[341] O
HI[342] O
HI[343] O
HI[344] O
HI[345] O
HI[346] O
HI[347] O
HI[348] O
HI[349] O
HI[34] O
HI[350] O
HI[351] O
HI[352] O
HI[353] O
HI[354] O
HI[355] O
HI[356] O
HI[357] O
HI[358] O
HI[359] O
HI[35] O
HI[360] O
HI[361] O
HI[362] O
HI[363] O
HI[364] O
HI[365] O
HI[366] O
HI[367] O
HI[368] O
HI[369] O
HI[36] O
HI[370] O
HI[371] O
HI[372] O
HI[373] O
HI[374] O
HI[375] O
HI[376] O
HI[377] O
HI[378] O
HI[379] O
HI[37] O
HI[380] O
HI[381] O
HI[382] O
HI[383] O
HI[384] O
HI[385] O
HI[386] O
HI[387] O
HI[388] O
HI[389] O
HI[38] O
HI[390] O
HI[391] O
HI[392] O
HI[393] O
HI[394] O
HI[395] O
HI[396] O
HI[397] O
HI[398] O
HI[399] O
HI[39] O
HI[3] O
HI[400] O
HI[401] O
HI[402] O
HI[403] O
HI[404] O
HI[405] O
HI[406] O
HI[407] O
HI[408] O
HI[409] O
HI[40] O
HI[410] O
HI[411] O
HI[412] O
HI[413] O
HI[414] O
HI[415] O
HI[416] O
HI[417] O
HI[418] O
HI[419] O
HI[41] O
HI[420] O
HI[421] O
HI[422] O
HI[423] O
HI[424] O
HI[425] O
HI[426] O
HI[427] O
HI[428] O
HI[429] O
HI[42] O
HI[430] O
HI[431] O
HI[432] O
HI[433] O
HI[434] O
HI[435] O
HI[436] O
HI[437] O
HI[438] O
HI[439] O
HI[43] O
HI[440] O
HI[441] O
HI[442] O
HI[443] O
HI[444] O
HI[445] O
HI[446] O
HI[447] O
HI[448] O
HI[449] O
HI[44] O
HI[450] O
HI[451] O
HI[452] O
HI[453] O
HI[454] O
HI[455] O
HI[456] O
HI[457] O
HI[458] O
HI[459] O
HI[45] O
HI[460] O
HI[461] O
HI[462] O
HI[46] O
HI[47] O
HI[48] O
HI[49] O
HI[4] O
HI[50] O
HI[51] O
HI[52] O
HI[53] O
HI[54] O
HI[55] O
HI[56] O
HI[57] O
HI[58] O
HI[59] O
HI[5] O
HI[60] O
HI[61] O
HI[62] O
HI[63] O
HI[64] O
HI[65] O
HI[66] O
HI[67] O
HI[68] O
HI[69] O
HI[6] O
HI[70] O
HI[71] O
HI[72] O
HI[73] O
HI[74] O
HI[75] O
HI[76] O
HI[77] O
HI[78] O
HI[79] O
HI[7] O
HI[80] O
HI[81] O
HI[82] O
HI[83] O
HI[84] O
HI[85] O
HI[86] O
HI[87] O
HI[88] O
HI[89] O
HI[8] O
HI[90] O
HI[91] O
HI[92] O
HI[93] O
HI[94] O
HI[95] O
HI[96] O
HI[97] O
HI[98] O
HI[99] O
HI[9] O

*D_NET *1 0.00407013
*CONN
*P HI[0] O
*I *763:HI O *D sky130_fd_sc_hd__conb_1
*CAP
1 HI[0] 0.000930449
2 *763:HI 0.000930449
3 HI[0] HI[100] 0.000721069
4 HI[0] HI[102] 5.99867e-05
5 HI[0] HI[10] 0.000637792
6 HI[0] HI[151] 0.000211464
7 HI[0] HI[155] 0.000364565
8 HI[0] HI[156] 0.00015647
9 HI[0] HI[157] 2.4968e-05
10 HI[0] HI[158] 3.29217e-05
*RES
1 *763:HI HI[0] 34.8545 
*END

*D_NET *2 0.00455231
*CONN
*P HI[100] O
*I *764:HI O *D sky130_fd_sc_hd__conb_1
*CAP
1 HI[100] 0.000796149
2 *764:HI 0.000796149
3 HI[100] HI[101] 0.00103184
4 HI[100] HI[102] 0.000270135
5 HI[100] HI[103] 8.49713e-06
6 HI[100] HI[104] 5.44715e-05
7 HI[100] HI[10] 0.00050485
8 HI[100] HI[14] 0
9 HI[100] HI[151] 0.000359922
10 HI[100] HI[152] 9.2346e-06
11 HI[0] HI[100] 0.000721069
*RES
1 *764:HI HI[100] 30.8827 
*END

*D_NET *3 0.00490638
*CONN
*P HI[101] O
*I *765:HI O *D sky130_fd_sc_hd__conb_1
*CAP
1 HI[101] 0.00127677
2 *765:HI 0.00127677
3 HI[101] HI[102] 0.00121528
4 HI[101] HI[146] 5.65354e-05
5 HI[101] HI[151] 4.91795e-05
6 HI[101] HI[155] 0
7 HI[100] HI[101] 0.00103184
*RES
1 *765:HI HI[101] 33.0674 
*END

*D_NET *4 0.0047888
*CONN
*P HI[102] O
*I *766:HI O *D sky130_fd_sc_hd__conb_1
*CAP
1 HI[102] 0.000965734
2 *766:HI 0.000965734
3 HI[102] HI[103] 0.000799508
4 HI[102] HI[14] 0.000101642
5 HI[102] HI[150] 0.000164325
6 HI[102] HI[151] 0.000246455
7 HI[0] HI[102] 5.99867e-05
8 HI[100] HI[102] 0.000270135
9 HI[101] HI[102] 0.00121528
*RES
1 *766:HI HI[102] 32.1768 
*END

*D_NET *5 0.00408324
*CONN
*P HI[103] O
*I *767:HI O *D sky130_fd_sc_hd__conb_1
*CAP
1 HI[103] 0.00107335
2 *767:HI 0.00107335
3 HI[103] HI[104] 0.00101092
4 HI[103] HI[106] 6.92705e-05
5 HI[103] HI[10] 0
6 HI[103] HI[14] 4.83428e-05
7 HI[103] HI[150] 0
8 HI[100] HI[103] 8.49713e-06
9 HI[102] HI[103] 0.000799508
*RES
1 *767:HI HI[103] 25.5717 
*END

*D_NET *6 0.00369069
*CONN
*P HI[104] O
*I *768:HI O *D sky130_fd_sc_hd__conb_1
*CAP
1 HI[104] 0.00120675
2 *768:HI 0.00120675
3 HI[104] HI[105] 0.000199124
4 HI[104] HI[14] 1.26746e-05
5 HI[100] HI[104] 5.44715e-05
6 HI[103] HI[104] 0.00101092
*RES
1 *768:HI HI[104] 23.7672 
*END

*D_NET *7 0.00363035
*CONN
*P HI[105] O
*I *769:HI O *D sky130_fd_sc_hd__conb_1
*CAP
1 HI[105] 0.00105522
2 *769:HI 0.00105522
3 HI[105] HI[106] 0.00124961
4 HI[105] HI[107] 1.34854e-05
5 HI[105] HI[108] 7.49735e-06
6 HI[105] HI[156] 5.01835e-05
7 HI[104] HI[105] 0.000199124
*RES
1 *769:HI HI[105] 21.2037 
*END

*D_NET *8 0.0044833
*CONN
*P HI[106] O
*I *770:HI O *D sky130_fd_sc_hd__conb_1
*CAP
1 HI[106] 0.000535732
2 *770:HI 0.000535732
3 HI[106] HI[107] 0.00147199
4 HI[106] HI[155] 0.000481241
5 HI[106] HI[284] 1.61631e-05
6 HI[106] HI[28] 4.89898e-06
7 HI[106] HI[327] 0.000118663
8 HI[103] HI[106] 6.92705e-05
9 HI[105] HI[106] 0.00124961
*RES
1 *770:HI HI[106] 29.6236 
*END

*D_NET *9 0.00380777
*CONN
*P HI[107] O
*I *771:HI O *D sky130_fd_sc_hd__conb_1
*CAP
1 HI[107] 0.000573093
2 *771:HI 0.000573093
3 HI[107] HI[108] 0.0010797
4 HI[107] HI[156] 6.50727e-05
5 HI[107] HI[280] 1.2693e-05
6 HI[107] HI[28] 7.92757e-06
7 HI[107] HI[291] 5.04829e-06
8 HI[107] HI[327] 5.66868e-06
9 HI[105] HI[107] 1.34854e-05
10 HI[106] HI[107] 0.00147199
*RES
1 *771:HI HI[107] 32.0551 
*END

*D_NET *10 0.00421466
*CONN
*P HI[108] O
*I *772:HI O *D sky130_fd_sc_hd__conb_1
*CAP
1 HI[108] 0.00108845
2 *772:HI 0.00108845
3 HI[108] HI[109] 0.000196797
4 HI[108] HI[156] 6.92705e-05
5 HI[108] HI[280] 0.000130414
6 HI[108] HI[28] 0.000525911
7 HI[108] HI[291] 2.81717e-05
8 HI[105] HI[108] 7.49735e-06
9 HI[107] HI[108] 0.0010797
*RES
1 *772:HI HI[108] 34.65 
*END

*D_NET *11 0.00443572
*CONN
*P HI[109] O
*I *773:HI O *D sky130_fd_sc_hd__conb_1
*CAP
1 HI[109] 0.00108406
2 *773:HI 0.00108406
3 HI[109] HI[110] 0.00194557
4 HI[109] HI[111] 7.50471e-05
5 HI[109] HI[327] 5.01835e-05
6 HI[108] HI[109] 0.000196797
*RES
1 *773:HI HI[109] 24.222 
*END

*D_NET *12 0.00344742
*CONN
*P HI[10] O
*I *774:HI O *D sky130_fd_sc_hd__conb_1
*CAP
1 HI[10] 0.000997403
2 *774:HI 0.000997403
3 HI[10] HI[12] 2.41916e-05
4 HI[10] HI[151] 1.72594e-05
5 HI[10] HI[152] 0.000268518
6 HI[0] HI[10] 0.000637792
7 HI[100] HI[10] 0.00050485
8 HI[103] HI[10] 0
*RES
1 *774:HI HI[10] 26.6911 
*END

*D_NET *13 0.00502511
*CONN
*P HI[110] O
*I *775:HI O *D sky130_fd_sc_hd__conb_1
*CAP
1 HI[110] 0.000777737
2 *775:HI 0.000777737
3 HI[110] HI[111] 0.000371852
4 HI[110] HI[112] 0.0001126
5 HI[110] HI[113] 0.000911818
6 HI[110] HI[288] 3.3239e-06
7 HI[110] HI[327] 0.000124472
8 HI[109] HI[110] 0.00194557
*RES
1 *775:HI HI[110] 27.875 
*END

*D_NET *14 0.00394072
*CONN
*P HI[111] O
*I *776:HI O *D sky130_fd_sc_hd__conb_1
*CAP
1 HI[111] 0.000634957
2 *776:HI 0.000634957
3 HI[111] HI[112] 0.000983852
4 HI[111] HI[113] 0.000843196
5 HI[111] HI[214] 0.000110598
6 HI[111] HI[28] 0.000221547
7 HI[111] HI[327] 6.47133e-05
8 HI[109] HI[111] 7.50471e-05
9 HI[110] HI[111] 0.000371852
*RES
1 *776:HI HI[111] 30.5066 
*END

*D_NET *15 0.00396885
*CONN
*P HI[112] O
*I *777:HI O *D sky130_fd_sc_hd__conb_1
*CAP
1 HI[112] 0.00120657
2 *777:HI 0.00120657
3 HI[112] HI[214] 0.00025906
4 HI[112] HI[28] 6.96396e-05
5 HI[112] HI[2] 0.000130551
6 HI[110] HI[112] 0.0001126
7 HI[111] HI[112] 0.000983852
*RES
1 *777:HI HI[112] 30.4881 
*END

*D_NET *16 0.00313646
*CONN
*P HI[113] O
*I *778:HI O *D sky130_fd_sc_hd__conb_1
*CAP
1 HI[113] 0.00059781
2 *778:HI 0.00059781
3 HI[113] HI[17] 0.000121426
4 HI[113] HI[288] 2.22159e-05
5 HI[113] HI[327] 4.21839e-05
6 HI[110] HI[113] 0.000911818
7 HI[111] HI[113] 0.000843196
*RES
1 *778:HI HI[113] 24.6074 
*END

*D_NET *17 0.000648811
*CONN
*P HI[114] O
*I *779:HI O *D sky130_fd_sc_hd__conb_1
*CAP
1 HI[114] 0.000210794
2 *779:HI 0.000210794
3 HI[114] HI[116] 0.000139089
4 HI[114] HI[13] 8.8134e-05
*RES
1 *779:HI HI[114] 20.0274 
*END

*D_NET *18 0.000652399
*CONN
*P HI[115] O
*I *780:HI O *D sky130_fd_sc_hd__conb_1
*CAP
1 HI[115] 0.000251055
2 *780:HI 0.000251055
3 HI[115] HI[119] 5.98545e-05
4 HI[115] HI[121] 9.04351e-05
*RES
1 *780:HI HI[115] 20.0274 
*END

*D_NET *19 0.00105651
*CONN
*P HI[116] O
*I *781:HI O *D sky130_fd_sc_hd__conb_1
*CAP
1 HI[116] 0.000332025