*SPEF "ieee 1481-1999"
*DESIGN "caravel_clocking"
*DATE "11:11:11 Fri 11 11, 1111"
*VENDOR "OpenRCX"
*PROGRAM "Parallel Extraction"
*VERSION "1.0"
*DESIGN_FLOW "NAME_SCOPE LOCAL" "PIN_CAP NONE"
*DIVIDER /
*DELIMITER :
*BUS_DELIMITER []
*T_UNIT 1 NS
*C_UNIT 1 PF
*R_UNIT 1 OHM
*L_UNIT 1 HENRY

*NAME_MAP
*3 core_clk
*4 ext_clk
*5 ext_clk_sel
*6 ext_reset
*7 pll_clk
*8 pll_clk90
*9 resetb
*10 resetb_sync
*11 sel2[0]
*12 sel2[1]
*13 sel2[2]
*14 sel[0]
*15 sel[1]
*16 sel[2]
*17 user_clk
*18 _000_
*19 _001_
*20 _002_
*21 _003_
*22 _004_
*23 _005_
*24 _006_
*25 _007_
*26 _008_
*27 _009_
*28 _010_
*29 _011_
*30 _012_
*31 _013_
*32 _014_
*33 _015_
*34 _016_
*35 _017_
*36 _018_
*37 _019_
*38 _020_
*39 _021_
*40 _022_
*41 _023_
*42 _024_
*43 _025_
*44 _026_
*45 _027_
*46 _028_
*47 _029_
*48 _030_
*49 _031_
*50 _032_
*51 _033_
*52 _034_
*53 _035_
*54 _036_
*55 _037_
*56 _038_
*57 _039_
*58 _040_
*59 _041_
*60 _042_
*61 _043_
*62 _044_
*63 _045_
*64 _046_
*65 _047_
*66 _048_
*67 _049_
*68 _050_
*69 _051_
*70 _052_
*71 _053_
*72 _054_
*73 _055_
*74 _056_
*75 _057_
*76 _058_
*77 _059_
*78 _060_
*79 _061_
*80 _062_
*81 _063_
*82 _064_
*83 _065_
*84 _066_
*85 _067_
*86 _068_
*87 _069_
*88 _070_
*89 _071_
*90 _072_
*91 _073_
*92 _074_
*93 _075_
*94 _076_
*95 _077_
*96 _078_
*97 _088_
*98 _089_
*99 _090_
*100 _091_
*101 _092_
*102 _093_
*103 _094_
*104 _095_
*105 _096_
*106 _097_
*107 _098_
*108 _099_
*109 _100_
*110 _101_
*111 _102_
*112 _103_
*113 _104_
*114 _105_
*115 _106_
*116 _107_
*117 _108_
*118 _109_
*119 _110_
*120 _111_
*121 _112_
*122 _113_
*123 _114_
*124 _115_
*125 _116_
*126 _117_
*127 _118_
*128 _119_
*129 _120_
*130 _121_
*131 _122_
*132 _123_
*133 _124_
*134 _125_
*135 _126_
*136 _127_
*137 _128_
*138 _129_
*139 _130_
*140 _131_
*141 _132_
*142 _133_
*143 _134_
*144 _135_
*145 _136_
*146 _137_
*147 _138_
*148 _139_
*149 _140_
*150 _141_
*151 _142_
*152 _143_
*153 _144_
*154 _145_
*155 _146_
*156 _147_
*157 _148_
*158 _149_
*159 _150_
*160 _151_
*161 _152_
*162 _153_
*163 _154_
*164 _155_
*165 _156_
*166 _157_
*167 _158_
*168 _159_
*169 _160_
*170 _161_
*171 _162_
*172 _163_
*173 _164_
*174 _165_
*175 _166_
*176 _167_
*177 _168_
*178 _169_
*179 _170_
*180 _171_
*181 _172_
*182 _173_
*183 _174_
*184 _175_
*185 _176_
*186 _177_
*187 _178_
*188 _179_
*189 _180_
*190 _181_
*191 _182_
*192 _183_
*193 _184_
*194 _185_
*195 _186_
*196 _187_
*197 _188_
*198 _189_
*199 _190_
*200 _191_
*201 _192_
*202 _193_
*203 _194_
*204 _195_
*205 _196_
*206 _197_
*207 _198_
*208 _199_
*209 _200_
*210 _201_
*211 _202_
*212 _203_
*213 _204_
*214 clknet_0__037_
*215 clknet_0_divider\.out
*216 clknet_0_divider2\.out
*217 clknet_0_ext_clk
*218 clknet_0_net10
*219 clknet_0_pll_clk
*220 clknet_0_pll_clk90
*221 clknet_1_0__leaf__037_
*222 clknet_1_0__leaf_divider\.out
*223 clknet_1_0__leaf_divider2\.out
*224 clknet_1_0__leaf_ext_clk
*225 clknet_1_0__leaf_pll_clk
*226 clknet_1_0__leaf_pll_clk90
*227 clknet_1_1__leaf__037_
*228 clknet_1_1__leaf_divider\.out
*229 clknet_1_1__leaf_divider2\.out
*230 clknet_1_1__leaf_ext_clk
*231 clknet_1_1__leaf_net10
*232 clknet_1_1__leaf_pll_clk
*233 clknet_1_1__leaf_pll_clk90
*234 divider\.even_0\.N\[0\]
*235 divider\.even_0\.N\[1\]
*236 divider\.even_0\.N\[2\]
*237 divider\.even_0\.counter\[0\]
*238 divider\.even_0\.counter\[1\]
*239 divider\.even_0\.counter\[2\]
*240 divider\.even_0\.out_counter
*241 divider\.odd_0\.counter2\[0\]
*242 divider\.odd_0\.counter2\[1\]
*243 divider\.odd_0\.counter2\[2\]
*244 divider\.odd_0\.counter\[0\]
*245 divider\.odd_0\.counter\[1\]
*246 divider\.odd_0\.counter\[2\]
*247 divider\.odd_0\.initial_begin\[0\]
*248 divider\.odd_0\.initial_begin\[1\]
*249 divider\.odd_0\.initial_begin\[2\]
*250 divider\.odd_0\.old_N\[0\]
*251 divider\.odd_0\.old_N\[1\]
*252 divider\.odd_0\.old_N\[2\]
*253 divider\.odd_0\.out_counter
*254 divider\.odd_0\.out_counter2
*255 divider\.odd_0\.rst_pulse
*256 divider\.out
*257 divider\.syncNp\[0\]
*258 divider\.syncNp\[1\]
*259 divider\.syncNp\[2\]
*260 divider2\.even_0\.N\[0\]
*261 divider2\.even_0\.N\[1\]
*262 divider2\.even_0\.N\[2\]
*263 divider2\.even_0\.counter\[0\]
*264 divider2\.even_0\.counter\[1\]
*265 divider2\.even_0\.counter\[2\]
*266 divider2\.even_0\.out_counter
*267 divider2\.odd_0\.counter2\[0\]
*268 divider2\.odd_0\.counter2\[1\]
*269 divider2\.odd_0\.counter2\[2\]
*270 divider2\.odd_0\.counter\[0\]
*271 divider2\.odd_0\.counter\[1\]
*272 divider2\.odd_0\.counter\[2\]
*273 divider2\.odd_0\.initial_begin\[0\]
*274 divider2\.odd_0\.initial_begin\[1\]
*275 divider2\.odd_0\.initial_begin\[2\]
*276 divider2\.odd_0\.old_N\[0\]
*277 divider2\.odd_0\.old_N\[1\]
*278 divider2\.odd_0\.old_N\[2\]
*279 divider2\.odd_0\.out_counter
*280 divider2\.odd_0\.out_counter2
*281 divider2\.odd_0\.rst_pulse
*282 divider2\.out
*283 divider2\.syncNp\[0\]
*284 divider2\.syncNp\[1\]
*285 divider2\.syncNp\[2\]
*286 ext_clk_syncd
*287 ext_clk_syncd_pre
*288 net1
*289 net10
*290 net11
*291 net13
*292 net14
*293 net15
*294 net16
*295 net17
*296 net18
*297 net19
*298 net2
*299 net20
*300 net21
*301 net22
*302 net23
*303 net24
*304 net25
*305 net26
*306 net27
*307 net28
*308 net29
*309 net3
*310 net30
*311 net31
*312 net32
*313 net33
*314 net34
*315 net35
*316 net36
*317 net37
*318 net38
*319 net39
*320 net4
*321 net5
*322 net6
*323 net7
*324 net8
*325 net9
*326 pll_clk_sel
*327 reset_delay\[0\]
*328 reset_delay\[1\]
*329 reset_delay\[2\]
*330 use_pll_first
*331 use_pll_second
*332 user_clk_buffered
*333 ANTENNA__233__A1
*334 ANTENNA__234__A1
*335 ANTENNA__234__S
*336 ANTENNA__235__A1
*337 ANTENNA__236__A1
*338 ANTENNA__236__S
*339 ANTENNA__237__A1
*340 ANTENNA__238__A1
*341 ANTENNA__240__S
*342 ANTENNA__241__A1
*343 ANTENNA__242__A1
*344 ANTENNA__242__S
*345 ANTENNA__243__A1
*346 ANTENNA__244__A1
*347 ANTENNA__245__A0
*348 ANTENNA__246__A0
*349 ANTENNA__275__A
*350 ANTENNA__275__B
*351 ANTENNA__276__A1
*352 ANTENNA__276__B1
*353 ANTENNA__277__A1
*354 ANTENNA__277__A2
*355 ANTENNA__277__B1
*356 ANTENNA__280__A1
*357 ANTENNA__280__A2
*358 ANTENNA__280__B1
*359 ANTENNA__281__A2
*360 ANTENNA__283__A1
*361 ANTENNA__306__B
*362 ANTENNA__313__A_N
*363 ANTENNA__316__A2
*364 ANTENNA__333__A
*365 ANTENNA__333__B
*366 ANTENNA__335__A
*367 ANTENNA__335__B
*368 ANTENNA__335__C
*369 ANTENNA__336__A1
*370 ANTENNA__336__A2
*371 ANTENNA__336__B1
*372 ANTENNA__351__B1
*373 ANTENNA__381__A1
*374 ANTENNA__387__A_N
*375 ANTENNA__388__A
*376 ANTENNA__390__A1
*377 ANTENNA__390__A2
*378 ANTENNA__397__A1
*379 ANTENNA__397__A2
*380 ANTENNA__398__A1
*381 ANTENNA__398__A3
*382 ANTENNA__399__A1
*383 ANTENNA__399__A2
*384 ANTENNA__400__A1
*385 ANTENNA__400__A3
*386 ANTENNA__401__A2
*387 ANTENNA__402__A1
*388 ANTENNA__402__A3
*389 ANTENNA__408__A
*390 ANTENNA__409__A1
*391 ANTENNA__417__SET_B
*392 ANTENNA__421__RESET_B
*393 ANTENNA__422__SET_B
*394 ANTENNA__437__SET_B
*395 ANTENNA__438__RESET_B
*396 ANTENNA__450__D
*397 ANTENNA__452__SET_B
*398 ANTENNA__453__RESET_B
*399 ANTENNA__457__SET_B
*400 ANTENNA__461__RESET_B
*401 ANTENNA__463__RESET_B
*402 ANTENNA__465__SET_B
*403 ANTENNA__466__RESET_B
*404 ANTENNA__467__RESET_B
*405 ANTENNA__468__RESET_B
*406 ANTENNA__469__SET_B
*407 ANTENNA__470__RESET_B
*408 ANTENNA__471__RESET_B
*409 ANTENNA__472__SET_B
*410 ANTENNA__473__RESET_B
*411 ANTENNA_clkbuf_0_ext_clk_A
*412 ANTENNA_clkbuf_0_pll_clk90_A
*413 ANTENNA_clkbuf_0_pll_clk_A
*414 ANTENNA_fanout21_A
*415 ANTENNA_fanout27_A
*416 ANTENNA_fanout28_A
*417 ANTENNA_input1_A
*418 ANTENNA_input2_A
*419 ANTENNA_input3_A
*420 ANTENNA_input4_A
*421 ANTENNA_input5_A
*422 ANTENNA_input6_A
*423 ANTENNA_input7_A
*424 ANTENNA_input8_A
*425 ANTENNA_input9_A
*426 FILLER_0_11
*427 FILLER_0_110
*428 FILLER_0_116
*429 FILLER_0_118
*430 FILLER_0_126
*431 FILLER_0_14
*432 FILLER_0_144
*433 FILLER_0_179
*434 FILLER_0_185
*435 FILLER_0_196
*436 FILLER_0_27
*437 FILLER_0_3
*438 FILLER_0_40
*439 FILLER_0_53
*440 FILLER_0_66
*441 FILLER_0_70
*442 FILLER_0_88
*443 FILLER_0_96
*444 FILLER_10_148
*445 FILLER_10_199
*446 FILLER_10_35
*447 FILLER_10_55
*448 FILLER_10_70
*449 FILLER_11_129
*450 FILLER_11_199
*451 FILLER_11_3
*452 FILLER_11_49
*453 FILLER_11_75
*454 FILLER_11_79
*455 FILLER_12_138
*456 FILLER_12_196
*457 FILLER_12_54
*458 FILLER_13_103
*459 FILLER_13_125
*460 FILLER_13_195
*461 FILLER_13_199
*462 FILLER_13_79
*463 FILLER_14_142
*464 FILLER_15_199
*465 FILLER_15_3
*466 FILLER_15_75
*467 FILLER_16_120
*468 FILLER_16_142
*469 FILLER_16_44
*470 FILLER_17_199
*471 FILLER_17_53
*472 FILLER_18_116
*473 FILLER_18_155
*474 FILLER_18_168
*475 FILLER_18_199
*476 FILLER_18_40
*477 FILLER_18_53
*478 FILLER_18_88
*479 FILLER_18_92
*480 FILLER_1_124
*481 FILLER_1_135
*482 FILLER_1_15
*483 FILLER_1_157
*484 FILLER_1_185
*485 FILLER_1_23
*486 FILLER_1_27
*487 FILLER_1_3
*488 FILLER_1_50
*489 FILLER_1_56
*490 FILLER_1_69
*491 FILLER_1_77
*492 FILLER_1_83
*493 FILLER_1_95
*494 FILLER_1_99
*495 FILLER_2_11
*496 FILLER_2_133
*497 FILLER_2_14
*498 FILLER_2_196
*499 FILLER_2_26
*500 FILLER_2_3
*501 FILLER_2_35
*502 FILLER_2_40
*503 FILLER_2_90
*504 FILLER_2_92
*505 FILLER_3_103
*506 FILLER_3_125
*507 FILLER_3_15
*508 FILLER_3_155
*509 FILLER_3_159
*510 FILLER_3_199
*511 FILLER_3_24
*512 FILLER_3_27
*513 FILLER_3_3
*514 FILLER_3_45
*515 FILLER_3_56
*516 FILLER_4_11
*517 FILLER_4_120
*518 FILLER_4_14
*519 FILLER_4_142
*520 FILLER_4_196
*521 FILLER_4_3
*522 FILLER_4_92
*523 FILLER_5_15
*524 FILLER_5_175
*525 FILLER_5_3
*526 FILLER_5_53
*527 FILLER_5_88
*528 FILLER_6_11
*529 FILLER_6_116
*530 FILLER_6_121
*531 FILLER_6_14
*532 FILLER_6_18
*533 FILLER_6_3
*534 FILLER_6_40
*535 FILLER_7_15
*536 FILLER_7_181
*537 FILLER_7_183
*538 FILLER_7_23
*539 FILLER_7_27
*540 FILLER_7_3
*541 FILLER_8_11
*542 FILLER_8_168
*543 FILLER_8_3
*544 FILLER_8_34
*545 FILLER_8_64
*546 FILLER_8_66
*547 FILLER_9_103
*548 FILLER_9_155
*549 FILLER_9_199
*550 FILLER_9_29
*551 FILLER_9_3
*552 FILLER_9_47
*553 FILLER_9_79
*554 PHY_0
*555 PHY_1
*556 PHY_10
*557 PHY_11
*558 PHY_12
*559 PHY_13
*560 PHY_14
*561 PHY_15
*562 PHY_16
*563 PHY_17
*564 PHY_18
*565 PHY_19
*566 PHY_2
*567 PHY_20
*568 PHY_21
*569 PHY_22
*570 PHY_23
*571 PHY_24
*572 PHY_25
*573 PHY_26
*574 PHY_27
*575 PHY_28
*576 PHY_29
*577 PHY_3
*578 PHY_30
*579 PHY_31
*580 PHY_32
*581 PHY_33
*582 PHY_34
*583 PHY_35
*584 PHY_36
*585 PHY_37
*586 PHY_4
*587 PHY_5
*588 PHY_6
*589 PHY_7
*590 PHY_8
*591 PHY_9
*592 TAP_100
*593 TAP_101
*594 TAP_102
*595 TAP_103
*596 TAP_104
*597 TAP_105
*598 TAP_106
*599 TAP_107
*600 TAP_108
*601 TAP_109
*602 TAP_110
*603 TAP_111
*604 TAP_112
*605 TAP_113
*606 TAP_114
*607 TAP_115
*608 TAP_116
*609 TAP_117
*610 TAP_118
*611 TAP_119
*612 TAP_120
*613 TAP_121
*614 TAP_122
*615 TAP_123
*616 TAP_124
*617 TAP_125
*618 TAP_126
*619 TAP_127
*620 TAP_128
*621 TAP_129
*622 TAP_130
*623 TAP_131
*624 TAP_132
*625 TAP_133
*626 TAP_134
*627 TAP_135
*628 TAP_136
*629 TAP_137
*630 TAP_138
*631 TAP_139
*632 TAP_140
*633 TAP_141
*634 TAP_142
*635 TAP_143
*636 TAP_144
*637 TAP_145
*638 TAP_146
*639 TAP_147
*640 TAP_148
*641 TAP_149
*642 TAP_150
*643 TAP_151
*644 TAP_152
*645 TAP_153
*646 TAP_154
*647 TAP_155
*648 TAP_156
*649 TAP_157
*650 TAP_158
*651 TAP_159
*652 TAP_160
*653 TAP_161
*654 TAP_162
*655 TAP_163
*656 TAP_164
*657 TAP_165
*658 TAP_166
*659 TAP_167
*660 TAP_168
*661 TAP_169
*662 TAP_170
*663 TAP_171
*664 TAP_172
*665 TAP_173
*666 TAP_174
*667 TAP_175
*668 TAP_176
*669 TAP_177
*670 TAP_178
*671 TAP_179
*672 TAP_180
*673 TAP_181
*674 TAP_182
*675 TAP_183
*676 TAP_184
*677 TAP_185
*678 TAP_186
*679 TAP_187
*680 TAP_188
*681 TAP_189
*682 TAP_190
*683 TAP_191
*684 TAP_192
*685 TAP_193
*686 TAP_194
*687 TAP_38
*688 TAP_39
*689 TAP_40
*690 TAP_41
*691 TAP_42
*692 TAP_43
*693 TAP_44
*694 TAP_45
*695 TAP_46
*696 TAP_47
*697 TAP_48
*698 TAP_49
*699 TAP_50
*700 TAP_51
*701 TAP_52
*702 TAP_53
*703 TAP_54
*704 TAP_55
*705 TAP_56
*706 TAP_57
*707 TAP_58
*708 TAP_59
*709 TAP_60
*710 TAP_61
*711 TAP_62
*712 TAP_63
*713 TAP_64
*714 TAP_65
*715 TAP_66
*716 TAP_67
*717 TAP_68
*718 TAP_69
*719 TAP_70
*720 TAP_71
*721 TAP_72
*722 TAP_73
*723 TAP_74
*724 TAP_75
*725 TAP_76
*726 TAP_77
*727 TAP_78
*728 TAP_79
*729 TAP_80
*730 TAP_81
*731 TAP_82
*732 TAP_83
*733 TAP_84
*734 TAP_85
*735 TAP_86
*736 TAP_87
*737 TAP_88
*738 TAP_89
*739 TAP_90
*740 TAP_91
*741 TAP_92
*742 TAP_93
*743 TAP_94
*744 TAP_95
*745 TAP_96
*746 TAP_97
*747 TAP_98
*748 TAP_99
*749 _206_
*750 _207_
*751 _208_
*752 _209_
*753 _210_
*754 _211_
*755 _212_
*756 _213_
*757 _214_
*758 _215_
*759 _216_
*760 _217_
*761 _218_
*762 _219_
*763 _220_
*764 _221_
*765 _222_
*766 _223_
*767 _224_
*768 _225_
*769 _226_
*770 _227_
*771 _228_
*772 _229_
*773 _230_
*774 _231_
*775 _232_
*776 _233_
*777 _234_
*778 _235_
*779 _236_
*780 _237_
*781 _238_
*782 _239_
*783 _240_
*784 _241_
*785 _242_
*786 _243_
*787 _244_
*788 _245_
*789 _246_
*790 _247_
*791 _248_
*792 _249_
*793 _250_
*794 _251_
*795 _252_
*796 _253_
*797 _254_
*798 _255_
*799 _256_
*800 _257_
*801 _258_
*802 _259_
*803 _260_
*804 _261_
*805 _262_
*806 _263_
*807 _264_
*808 _265_
*809 _266__7
*810 _267_
*811 _268__4
*812 _269_
*813 _270_
*814 _271__1
*815 _272_
*816 _273_
*817 _274_
*818 _275_
*819 _276_
*820 _277_
*821 _278_
*822 _279_
*823 _280_
*824 _281_
*825 _282_
*826 _283_
*827 _284_
*828 _285_
*829 _286_
*830 _287_
*831 _288_
*832 _289_
*833 _290_
*834 _291_
*835 _292_
*836 _293_
*837 _294_
*838 _295_
*839 _296_
*840 _297_
*841 _298_
*842 _299_
*843 _300_
*844 _301_
*845 _302_
*846 _303_
*847 _304_
*848 _305_
*849 _306_
*850 _307_
*851 _308_
*852 _309_
*853 _310_
*854 _311_
*855 _312_
*856 _313_
*857 _314_
*858 _315_
*859 _316_
*860 _317_
*861 _318_
*862 _319_
*863 _320_
*864 _321_
*865 _322_
*866 _323_
*867 _324_
*868 _325_
*869 _326_
*870 _327_
*871 _328_
*872 _329_
*873 _330_
*874 _331_
*875 _332_
*876 _333_
*877 _334_
*878 _335_
*879 _336_
*880 _337_
*881 _338_
*882 _339_
*883 _340_
*884 _341_
*885 _342_
*886 _343_
*887 _344_
*888 _345_
*889 _346_
*890 _347_
*891 _348_
*892 _349_
*893 _350_
*894 _351_
*895 _352_
*896 _353_
*897 _354_
*898 _355_
*899 _356_
*900 _357_
*901 _358_
*902 _359_
*903 _360_
*904 _361_
*905 _362_
*906 _363_
*907 _364_
*908 _365_
*909 _366_
*910 _367_
*911 _368_
*912 _369_
*913 _370_
*914 _371_
*915 _372_
*916 _373_
*917 _374_
*918 _375_
*919 _376_
*920 _377_
*921 _378_
*922 _379_
*923 _380_
*924 _381_
*925 _382_
*926 _383_
*927 _384_
*928 _385_
*929 _386_
*930 _387_
*931 _388_
*932 _389_
*933 _390_
*934 _391_
*935 _392_
*936 _393_
*937 _394_
*938 _395_
*939 _396_
*940 _397_
*941 _398_
*942 _399_
*943 _400_
*944 _401_
*945 _402_
*946 _403_
*947 _404_
*948 _405_
*949 _406_
*950 _407_
*951 _408_
*952 _409_
*953 _410_
*954 _411__8
*955 _412__9
*956 _413__5
*957 _414__6
*958 _415__2
*959 _416__3
*960 _417_
*961 _418_
*962 _419_
*963 _419__30
*964 _420_
*965 _421_
*966 _422_
*967 _423_
*968 _424_
*969 _425_
*970 _426_
*971 _427_
*972 _428_
*973 _429_
*974 _430_
*975 _431_
*976 _432_
*977 _433_
*978 _434_
*979 _435_
*980 _436_
*981 _437_
*982 _438_
*983 _439_
*984 _440_
*985 _441_
*986 _442_
*987 _443_
*988 _444_
*989 _445_
*990 _446_
*991 _447_
*992 _448_
*993 _449_
*994 _450_
*995 _451_
*996 _452_
*997 _453_
*998 _454_
*999 _455_
*1000 _456_
*1001 _457_
*1002 _458_
*1003 _459_
*1004 _460_
*1005 _461_
*1006 _462_
*1007 _463_
*1008 _464_
*1009 _465_
*1010 _466_
*1011 _467_
*1012 _468_
*1013 _469_
*1014 _470_
*1015 _471_
*1016 _472_
*1017 _473_
*1018 clkbuf_0__037_
*1019 clkbuf_0_divider\.out
*1020 clkbuf_0_divider2\.out
*1021 clkbuf_0_ext_clk
*1022 clkbuf_0_net10
*1023 clkbuf_0_pll_clk
*1024 clkbuf_0_pll_clk90
*1025 clkbuf_1_0__f__037_
*1026 clkbuf_1_0__f_divider\.out
*1027 clkbuf_1_0__f_divider2\.out
*1028 clkbuf_1_0__f_ext_clk
*1029 clkbuf_1_0__f_net10
*1030 clkbuf_1_0__f_pll_clk
*1031 clkbuf_1_0__f_pll_clk90
*1032 clkbuf_1_1__f__037_
*1033 clkbuf_1_1__f_divider\.out
*1034 clkbuf_1_1__f_divider2\.out
*1035 clkbuf_1_1__f_ext_clk
*1036 clkbuf_1_1__f_net10
*1037 clkbuf_1_1__f_pll_clk
*1038 clkbuf_1_1__f_pll_clk90
*1039 fanout13
*1040 fanout14
*1041 fanout15
*1042 fanout16
*1043 fanout17
*1044 fanout18
*1045 fanout19
*1046 fanout20
*1047 fanout21
*1048 fanout22
*1049 fanout23
*1050 fanout24
*1051 fanout25
*1052 fanout26
*1053 fanout27
*1054 fanout28
*1055 fanout29
*1056 input1
*1057 input2
*1058 input3
*1059 input4
*1060 input5
*1061 input6
*1062 input7
*1063 input8
*1064 input9
*1065 output11
*1066 user_clk_out_buffer

*PORTS
core_clk O
ext_clk I
ext_clk_sel I
ext_reset I
pll_clk I
pll_clk90 I
resetb I
resetb_sync O
sel2[0] I
sel2[1] I
sel2[2] I
sel[0] I
sel[1] I
sel[2] I
user_clk O

*D_NET *3 0.00490438
*CONN
*P core_clk O
*I *955:A I *D sky130_fd_sc_hd__inv_4
*I *1029:X O *D sky130_fd_sc_hd__clkbuf_16
*CAP
1 core_clk 0.000352155
2 *955:A 0.000133901
3 *1029:X 0.000560582
4 *3:10 0.00104664
5 core_clk *776:A0 0.000668572
6 core_clk *962:D 0.000366787
7 core_clk *291:197 7.7925e-05
8 core_clk *292:122 0
9 core_clk *292:127 0
10 core_clk *293:137 0.000105345
11 core_clk *304:21 8.87544e-05
12 *955:A *1035:A 4.12086e-05
13 *955:A *1036:A 8.35118e-05
14 *955:A *218:9 8.41384e-05
15 *3:10 *776:A0 0.000134029
16 *3:10 *787:S 0.000742387
17 *3:10 *804:A 0.000136884
18 *3:10 *1029:A 0.000193774
19 *3:10 *291:116 1.07628e-05
20 *3:10 *291:197 6.54361e-06
21 *3:10 *292:248 1.7635e-05
22 *3:10 *304:32 5.06382e-06
23 *3:10 *304:51 4.77807e-05
*RES
1 *1029:X *3:10 15.72 
2 *3:10 *955:A 6.135 
3 *3:10 core_clk 10.38 
*END

*D_NET *4 0.00212525
*CONN
*P ext_clk I
*I *411:DIODE I *D sky130_fd_sc_hd__diode_2
*I *1021:A I *D sky130_fd_sc_hd__clkbuf_16
*CAP
1 ext_clk 0.000381432
2 *411:DIODE 0
3 *1021:A 3.43292e-05
4 *4:5 0.000415761
5 *1021:A *336:DIODE 7.16393e-05
6 *1021:A *780:A0 7.29214e-05
7 *1021:A *267:38 2.69153e-05
8 *1021:A *269:47 4.66108e-05
9 *4:5 *334:DIODE 2.19432e-05
10 *4:5 *336:DIODE 7.1624e-05
11 *4:5 *752:A1 0.000342696
12 *4:5 *778:A0 4.45437e-05
13 *4:5 *779:A1 0.000167865
14 *4:5 *780:A0 8.36444e-05
15 *4:5 *792:A 0
16 *4:5 *828:A1 8.82688e-05
17 *4:5 *999:D 0.00011109
18 *4:5 *1028:A 3.48471e-05
19 *4:5 *301:231 1.32017e-05
20 *4:5 *307:15 9.59171e-05
*RES
1 ext_clk *4:5 9.87 
2 *4:5 *1021:A 4.92 
3 *4:5 *411:DIODE 3.6 
*END

*D_NET *5 0.00659455
*CONN
*P ext_clk_sel I
*I *1056:A I *D sky130_fd_sc_hd__clkbuf_1
*I *417:DIODE I *D sky130_fd_sc_hd__diode_2
*CAP
1 ext_clk_sel 0.000498025
2 *1056:A 0
3 *417:DIODE 0.00112192
4 *5:10 0.00161994
5 *417:DIODE *423:DIODE 0.00139061
6 *417:DIODE *424:DIODE 0
7 *417:DIODE *767:A0 8.65961e-05
8 *417:DIODE *769:S 5.80221e-05
9 *417:DIODE *846:C 0
10 *417:DIODE *914:B1_N 8.53113e-06
11 *417:DIODE *152:26 1.37864e-05
12 *417:DIODE *152:35 8.49205e-05
13 *417:DIODE *293:11 0.000234283
14 *417:DIODE *293:23 0.00144801
15 *5:10 *902:B 0
16 *5:10 *1050:A 5.53249e-06
17 *5:10 *152:43 2.43848e-05
*RES
1 ext_clk_sel *5:10 3.7129 
2 *5:10 *417:DIODE 35.775 
3 *5:10 *1056:A 1.6 
*END

*D_NET *6 0.0153184
*CONN
*P ext_reset I
*I *1057:A I *D sky130_fd_sc_hd__clkbuf_1
*I *418:DIODE I *D sky130_fd_sc_hd__diode_2
*CAP
1 ext_reset 0.000382724
2 *1057:A 0
3 *418:DIODE 0.00049534
4 *6:40 0.00323788
5 *6:12 0.00312526
6 *418:DIODE *423:DIODE 0.000142423
7 *418:DIODE *424:DIODE 0.00114885
8 *418:DIODE *425:DIODE 0.0010374
9 *418:DIODE *870:A 0
10 *418:DIODE *293:23 2.30292e-05
11 *418:DIODE *293:28 9.50342e-06
12 *418:DIODE *303:72 0
13 *418:DIODE *303:82 0
14 *6:12 *359:DIODE 0
15 *6:12 *892:A 3.78625e-05
16 *6:12 *925:D 1.06022e-05
17 *6:12 *8:22 0.000170931
18 *6:12 *13:12 0
19 *6:40 *359:DIODE 1.87962e-05
20 *6:40 *404:DIODE 4.33239e-05
21 *6:40 *420:DIODE 0.000580553
22 *6:40 *422:DIODE 0.000661675
23 *6:40 *424:DIODE 0
24 *6:40 *425:DIODE 0.000630587
25 *6:40 *801:A 0
26 *6:40 *914:B1_N 0
27 *6:40 *925:D 1.00941e-05
28 *6:40 *927:B 1.01574e-05
29 *6:40 *929:A_N 1.88656e-05
30 *6:40 *931:B 0.000393304
31 *6:40 *969:CLK 0
32 *6:40 *982:CLK 0.000196048
33 *6:40 *993:D 7.96104e-06
34 *6:40 *995:D 0.000110301
35 *6:40 *1010:D 2.42931e-05
36 *6:40 *1011:CLK 7.03276e-05
37 *6:40 *1012:RESET_B 0.00025647
38 *6:40 *1014:D 0.000160282
39 *6:40 *1065:A 8.92899e-05
40 *6:40 *8:22 1.92979e-05
41 *6:40 *13:12 0.000177306
42 *6:40 *145:21 0.000214921
43 *6:40 *145:276 0.000621116
44 *6:40 *145:295 0.000132269
45 *6:40 *233:70 0.000203037
46 *6:40 *277:16 1.25872e-05
47 *6:40 *291:273 0
48 *6:40 *292:24 5.35535e-05
49 *6:40 *299:13 0.000199047
50 *6:40 *308:159 0.000346443
51 *6:40 *308:165 8.25088e-05
52 *6:40 *308:204 8.33532e-05
53 *6:40 *325:25 6.88421e-05
*RES
1 ext_reset *6:12 3.31043 
2 *6:12 *6:40 49.5142 
3 *6:40 *418:DIODE 23.635 
4 *6:12 *1057:A 3.6 
*END

*D_NET *7 0.00741582
*CONN
*P pll_clk I
*I *413:DIODE I *D sky130_fd_sc_hd__diode_2
*I *1023:A I *D sky130_fd_sc_hd__clkbuf_16
*CAP
1 pll_clk 0.00250361
2 *413:DIODE 0
3 *1023:A 8.08365e-05
4 *7:22 0.00258445
5 *1023:A *985:D 4.99435e-05
6 *7:22 *359:DIODE 0
7 *7:22 *422:DIODE 0.000433589
8 *7:22 *754:S 0
9 *7:22 *788:A1 0.000256648
10 *7:22 *859:A1 3.46704e-05
11 *7:22 *859:A3 0
12 *7:22 *928:B 0
13 *7:22 *931:B 0
14 *7:22 *933:B2 2.08035e-05
15 *7:22 *949:A0 3.89366e-05
16 *7:22 *985:D 0.00020426
17 *7:22 *1005:CLK 0.000237841
18 *7:22 *1014:D 0
19 *7:22 *1015:D 0.00025477
20 *7:22 *1024:A 0.000263975
21 *7:22 *1027:A 0
22 *7:22 *8:22 4.36587e-05
23 *7:22 *13:12 3.4677e-05
24 *7:22 *216:8 0
25 *7:22 *292:67 4.82172e-06
26 *7:22 *301:41 0.000248463
27 *7:22 *301:53 0.000119873
28 *7:22 *307:88 0
29 *7:22 *307:96 0
*RES
1 pll_clk *7:22 44.745 
2 *7:22 *1023:A 2.755 
3 *7:22 *413:DIODE 1.6 
*END

*D_NET *8 0.00892251
*CONN
*P pll_clk90 I
*I *1024:A I *D sky130_fd_sc_hd__clkbuf_16
*I *412:DIODE I *D sky130_fd_sc_hd__diode_2
*CAP
1 pll_clk90 0.00242419
2 *1024:A 0.000539962
3 *412:DIODE 2.48376e-05
4 *8:22 0.00298899
5 *1024:A *940:A2 6.90254e-05
6 *1024:A *941:B1 3.0933e-05
7 *1024:A *1005:CLK 0.000330436
8 *1024:A *301:68 7.45532e-05
9 *1024:A *307:88 2.11358e-05
10 *8:22 *421:DIODE 4.56239e-05
11 *8:22 *789:S 7.71167e-06
12 *8:22 *925:A_N 2.63212e-05
13 *8:22 *925:D 4.88912e-05
14 *8:22 *951:D 0.000161259
15 *8:22 *1010:CLK 6.09693e-05
16 *8:22 *1011:D 0.000253655
17 *8:22 *1012:RESET_B 6.22487e-05
18 *8:22 *1017:D 0.000120786
19 *8:22 *12:11 0
20 *8:22 *261:32 0.000148601
21 *8:22 *262:5 6.80075e-05
22 *8:22 *262:20 0.000171367
23 *8:22 *265:7 1.16855e-05
24 *8:22 *265:21 0.000141599
25 *8:22 *291:54 3.28218e-05
26 *8:22 *291:260 4.44971e-05
27 *8:22 *293:129 0
28 *8:22 *294:12 2.24628e-05
29 *8:22 *294:67 0.000242623
30 *8:22 *301:41 9.06158e-05
31 *8:22 *301:53 4.18954e-05
32 *8:22 *308:159 7.05809e-05
33 *8:22 *308:165 4.63518e-05
34 *6:12 *8:22 0.000170931
35 *6:40 *8:22 1.92979e-05
36 *7:22 *1024:A 0.000263975
37 *7:22 *8:22 4.36587e-05
*RES
1 pll_clk90 *8:22 45.615 
2 *8:22 *412:DIODE 2.05 
3 *8:22 *1024:A 15.335 
*END

*D_NET *9 0.00563834
*CONN
*P resetb I
*I *1058:A I *D sky130_fd_sc_hd__clkbuf_1
*I *419:DIODE I *D sky130_fd_sc_hd__diode_2
*CAP
1 resetb 0.000548589
2 *1058:A 3.07736e-05
3 *419:DIODE 0.000903152
4 *9:13 0.00148251
5 *419:DIODE *774:A0 0.00012182
6 *419:DIODE *781:A1 0.000308624
7 *419:DIODE *802:A 0.000250191
8 *419:DIODE *803:A 8.35118e-05
9 *419:DIODE *816:A1 8.23457e-05
10 *419:DIODE *923:A1 0
11 *419:DIODE *934:A_N 0
12 *419:DIODE *938:A0 1.87945e-05
13 *419:DIODE *939:A1 0
14 *419:DIODE *992:CLK 0
15 *419:DIODE *992:D 0.000112003
16 *419:DIODE *998:RESET_B 0.000219717
17 *419:DIODE *1002:D 0.000236808
18 *419:DIODE *1004:RESET_B 0.000130352
19 *419:DIODE *82:18 5.91641e-05
20 *419:DIODE *274:11 7.96104e-06
21 *419:DIODE *291:141 1.08879e-05
22 *419:DIODE *291:157 2.90895e-05
23 *419:DIODE *292:193 0
24 *419:DIODE *304:21 0
25 *419:DIODE *305:12 0.000125403
26 *419:DIODE *305:14 0.000337315
27 *419:DIODE *305:27 7.1023e-05
28 *419:DIODE *309:9 8.99419e-05
29 *1058:A *752:A1 1.56428e-05
30 *9:13 *752:S 0
31 *9:13 *778:A0 0.000202924
32 *9:13 *1018:A 6.63219e-06
33 *9:13 *305:12 0.000153159
*RES
1 resetb *9:13 8.325 
2 *9:13 *419:DIODE 29.005 
3 *9:13 *1058:A 4.05 
*END

*D_NET *10 0.00625011
*CONN
*P resetb_sync O
*I *1065:X O *D sky130_fd_sc_hd__buf_12
*CAP
1 resetb_sync 0.0019959
2 *1065:X 0.0019959
3 resetb_sync *349:DIODE 0.000264864
4 resetb_sync *824:A1 0
5 resetb_sync *824:B1 0.000193903
6 resetb_sync *857:A 2.93784e-05
7 resetb_sync *857:B 0.000199434
8 resetb_sync *859:A3 1.98144e-05
9 resetb_sync *893:D1 9.12494e-06
10 resetb_sync *951:A 4.77807e-05
11 resetb_sync *960:CLK 3.72081e-05
12 resetb_sync *1016:D 7.34042e-05
13 resetb_sync *1025:A 0
14 resetb_sync *1032:A 0
15 resetb_sync *1042:A 0.000232403
16 resetb_sync *1066:A 0.000142779
17 resetb_sync *229:8 0.000120636
18 resetb_sync *263:20 0.000105518
19 resetb_sync *263:25 7.06269e-05
20 resetb_sync *263:52 2.23922e-05
21 resetb_sync *279:26 0.000492204
22 resetb_sync *293:114 0.000196837
*RES
1 *1065:X resetb_sync 41.425 
*END

*D_NET *11 0.00936995
*CONN
*P sel2[0] I
*I *1059:A I *D sky130_fd_sc_hd__clkbuf_1
*I *420:DIODE I *D sky130_fd_sc_hd__diode_2
*CAP
1 sel2[0] 0.000278184
2 *1059:A 0.000100673
3 *420:DIODE 0.00251057
4 *11:7 0.00288943
5 *420:DIODE *407:DIODE 3.82018e-05
6 *420:DIODE *424:DIODE 0.000234352
7 *420:DIODE *766:A1 2.49909e-05
8 *420:DIODE *766:S 0.000112393
9 *420:DIODE *767:A1 0.000593568
10 *420:DIODE *913:A2 0.000157759
11 *420:DIODE *952:B1 9.25686e-05
12 *420:DIODE *964:D 0.000345503
13 *420:DIODE *993:D 0
14 *420:DIODE *994:D 0
15 *420:DIODE *995:CLK 7.80657e-05
16 *420:DIODE *995:D 0.000107782
17 *420:DIODE *1010:D 0.000103412
18 *420:DIODE *12:11 0
19 *420:DIODE *69:14 0.000108031
20 *420:DIODE *145:21 1.19249e-05
21 *420:DIODE *233:72 9.32181e-05
22 *420:DIODE *235:57 4.30945e-05
23 *420:DIODE *236:12 0
24 *420:DIODE *244:36 0.000137871
25 *420:DIODE *245:15 8.40269e-05
26 *420:DIODE *291:44 3.78595e-05
27 *420:DIODE *293:68 0.000223087
28 *420:DIODE *293:89 0.000178518
29 *420:DIODE *294:20 2.20005e-05
30 *420:DIODE *295:25 3.17252e-05
31 *420:DIODE *308:159 3.579e-05
32 *1059:A *952:B1 7.70376e-05
33 *1059:A *12:11 0
34 *1059:A *265:21 3.77575e-05
35 *6:40 *420:DIODE 0.000580553
*RES
1 sel2[0] *11:7 1.07253 
2 *11:7 *420:DIODE 36.7587 
3 *11:7 *1059:A 5.8725 
*END

*D_NET *12 0.00843847
*CONN
*P sel2[1] I
*I *1060:A I *D sky130_fd_sc_hd__clkbuf_1
*I *421:DIODE I *D sky130_fd_sc_hd__diode_2
*CAP
1 sel2[1] 0.00071265
2 *1060:A 0
3 *421:DIODE 0.00160341
4 *12:11 0.00231606
5 *421:DIODE *422:DIODE 4.89295e-05
6 *421:DIODE *425:DIODE 0.000555009
7 *421:DIODE *767:A0 9.79137e-05
8 *421:DIODE *767:A1 1.75833e-05
9 *421:DIODE *768:A0 0.000163921
10 *421:DIODE *769:S 0.000198939
11 *421:DIODE *900:A_N 0.000435005
12 *421:DIODE *917:A1 9.23027e-06
13 *421:DIODE *946:D1 9.10609e-05
14 *421:DIODE *953:A 3.25676e-05
15 *421:DIODE *995:CLK 0.000316134
16 *421:DIODE *1010:RESET_B 0.000177179
17 *421:DIODE *1011:D 2.25541e-05
18 *421:DIODE *49:24 6.61378e-05
19 *421:DIODE *233:70 8.53113e-06
20 *421:DIODE *233:72 0.0004711
21 *421:DIODE *251:20 0.00035809
22 *421:DIODE *262:20 4.39001e-05
23 *421:DIODE *262:22 3.91709e-05
24 *421:DIODE *264:7 4.66108e-05
25 *421:DIODE *292:18 1.20478e-05
26 *421:DIODE *292:286 0.000296861
27 *421:DIODE *293:89 4.72151e-05
28 *421:DIODE *303:40 0.000116851
29 *421:DIODE *303:43 8.23457e-05
30 *12:11 *265:21 0
31 *12:11 *293:89 5.83121e-06
32 *420:DIODE *12:11 0
33 *1059:A *12:11 0
34 *8:22 *421:DIODE 4.56239e-05
35 *8:22 *12:11 0
*RES
1 sel2[1] *12:11 12.5837 
2 *12:11 *421:DIODE 43.47 
3 *12:11 *1060:A 1.6 
*END

*D_NET *13 0.0105519
*CONN
*P sel2[2] I
*I *1061:A I *D sky130_fd_sc_hd__clkbuf_1
*I *422:DIODE I *D sky130_fd_sc_hd__diode_2
*CAP
1 sel2[2] 0.00168233
2 *1061:A 2.51911e-05
3 *422:DIODE 0.00154183
4 *13:12 0.00324935
5 *422:DIODE *914:B1_N 0
6 *422:DIODE *931:A 1.29248e-05
7 *422:DIODE *931:B 0
8 *422:DIODE *931:C 0.000505788
9 *422:DIODE *969:D 0.000143333
10 *422:DIODE *993:D 0
11 *422:DIODE *1015:D 0.000256052
12 *422:DIODE *1046:A 0.000300994
13 *422:DIODE *49:24 4.80121e-06
14 *422:DIODE *245:8 0
15 *422:DIODE *245:15 0
16 *422:DIODE *278:8 0
17 *422:DIODE *292:24 2.0851e-06
18 *422:DIODE *292:40 0.000595457
19 *422:DIODE *292:51 0.000228867
20 *422:DIODE *299:8 2.23253e-05
21 *422:DIODE *299:13 9.14889e-05
22 *422:DIODE *308:117 4.36573e-06
23 *422:DIODE *308:130 2.04875e-05
24 *422:DIODE *325:25 0
25 *1061:A *996:CLK 0.00012182
26 *1061:A *1013:D 0.00012182
27 *13:12 *788:A1 0.000101366
28 *13:12 *292:51 0.000158112
29 *13:12 *292:67 4.96046e-06
30 *421:DIODE *422:DIODE 4.89295e-05
31 *6:12 *13:12 0
32 *6:40 *422:DIODE 0.000661675
33 *6:40 *13:12 0.000177306
34 *7:22 *422:DIODE 0.000433589
35 *7:22 *13:12 3.4677e-05
*RES
1 sel2[2] *13:12 5.4359 
2 *13:12 *422:DIODE 38.385 
3 *13:12 *1061:A 4.74 
*END

*D_NET *14 0.00550379
*CONN
*P sel[0] I
*I *1062:A I *D sky130_fd_sc_hd__clkbuf_1
*I *423:DIODE I *D sky130_fd_sc_hd__diode_2
*CAP
1 sel[0] 0.000572153
2 *1062:A 0
3 *423:DIODE 0.00130319
4 *14:11 0.00187535
5 *423:DIODE *424:DIODE 0
6 *423:DIODE *425:DIODE 3.23663e-05
7 *423:DIODE *806:A 2.65028e-05
8 *423:DIODE *293:23 0.000161204
9 *14:11 *806:A 0
10 *14:11 *902:B 0
11 *14:11 *904:A1 0
12 *417:DIODE *423:DIODE 0.00139061
13 *418:DIODE *423:DIODE 0.000142423
*RES
1 sel[0] *14:11 10.4854 
2 *14:11 *423:DIODE 38.655 
3 *14:11 *1062:A 1.6 
*END

*D_NET *15 0.0082478
*CONN
*P sel[1] I
*I *1063:A I *D sky130_fd_sc_hd__clkbuf_1
*I *424:DIODE I *D sky130_fd_sc_hd__diode_2
*CAP
1 sel[1] 0.000365317
2 *1063:A 0
3 *424:DIODE 0.00214918
4 *15:11 0.0025145
5 *424:DIODE *425:DIODE 3.67427e-05
6 *424:DIODE *767:A1 0.000134501
7 *424:DIODE *903:A 4.66108e-05
8 *424:DIODE *914:B1_N 0.000266871
9 *424:DIODE *982:D 0.000123162
10 *424:DIODE *982:RESET_B 0.000256477
11 *424:DIODE *987:D 0.00010777
12 *424:DIODE *49:24 7.33168e-05
13 *424:DIODE *245:8 0.000102157
14 *424:DIODE *245:15 0.000160509
15 *424:DIODE *246:7 8.23457e-05
16 *424:DIODE *252:13 8.68216e-06
17 *424:DIODE *293:23 0.000113282
18 *424:DIODE *295:19 9.04168e-05
19 *15:11 *425:DIODE 7.44685e-06
20 *15:11 *901:C 0.000146489
21 *15:11 *1064:A 6.08811e-05
22 *15:11 *325:25 1.79536e-05
23 *417:DIODE *424:DIODE 0
24 *418:DIODE *424:DIODE 0.00114885
25 *420:DIODE *424:DIODE 0.000234352
26 *423:DIODE *424:DIODE 0
27 *6:40 *424:DIODE 0
*RES
1 sel[1] *15:11 7.6487 
2 *15:11 *424:DIODE 42.96 
3 *15:11 *1063:A 1.6 
*END
