*SPEF "ieee 1481-1999"
*DESIGN "caravel_clocking"
*DATE "11:11:11 Fri 11 11, 1111"
*VENDOR "OpenRCX"
*PROGRAM "Parallel Extraction"
*VERSION "1.0"
*DESIGN_FLOW "NAME_SCOPE LOCAL" "PIN_CAP NONE"
*DIVIDER /
*DELIMITER :
*BUS_DELIMITER []
*T_UNIT 1 NS
*C_UNIT 1 PF
*R_UNIT 1 OHM
*L_UNIT 1 HENRY

*NAME_MAP
*3 core_clk
*4 ext_clk
*5 ext_clk_sel
*6 ext_reset
*7 pll_clk
*8 pll_clk90
*9 porb
*10 resetb
*11 resetb_sync
*12 sel2[0]
*13 sel2[1]
*14 sel2[2]
*15 sel[0]
*16 sel[1]
*17 sel[2]
*18 user_clk
*19 _000_
*20 _001_
*21 _002_
*22 _003_
*23 _004_
*24 _005_
*25 _006_
*26 _007_
*27 _008_
*28 _009_
*29 _010_
*30 _011_
*31 _012_
*32 _013_
*33 _014_
*34 _015_
*35 _016_
*36 _017_
*37 _018_
*38 _019_
*39 _020_
*40 _021_
*41 _022_
*42 _023_
*43 _024_
*44 _025_
*45 _026_
*46 _027_
*47 _028_
*48 _029_
*49 _030_
*50 _031_
*51 _032_
*52 _033_
*53 _034_
*54 _035_
*55 _036_
*56 _037_
*57 _038_
*58 _039_
*59 _040_
*60 _041_
*61 _042_
*62 _043_
*63 _044_
*64 _045_
*65 _046_
*66 _047_
*67 _048_
*68 _049_
*69 _050_
*70 _051_
*71 _052_
*72 _053_
*73 _054_
*74 _055_
*75 _056_
*76 _057_
*77 _058_
*78 _059_
*79 _060_
*80 _061_
*81 _062_
*82 _063_
*83 _064_
*84 _065_
*85 _066_
*86 _067_
*87 _068_
*88 _069_
*89 _070_
*90 _071_
*91 _072_
*92 _073_
*93 _074_
*94 _075_
*95 _076_
*96 _077_
*97 _078_
*98 _088_
*99 _089_
*100 _090_
*101 _091_
*102 _092_
*103 _093_
*104 _094_
*105 _095_
*106 _096_
*107 _097_
*108 _098_
*109 _099_
*110 _100_
*111 _101_
*112 _102_
*113 _103_
*114 _104_
*115 _105_
*116 _106_
*117 _107_
*118 _108_
*119 _109_
*120 _110_
*121 _111_
*122 _112_
*123 _113_
*124 _114_
*125 _115_
*126 _116_
*127 _117_
*128 _118_
*129 _119_
*130 _120_
*131 _121_
*132 _122_
*133 _123_
*134 _124_
*135 _125_
*136 _126_
*137 _127_
*138 _128_
*139 _129_
*140 _130_
*141 _131_
*142 _132_
*143 _133_
*144 _134_
*145 _135_
*146 _136_
*147 _137_
*148 _138_
*149 _139_
*150 _140_
*151 _141_
*152 _142_
*153 _143_
*154 _144_
*155 _145_
*156 _146_
*157 _147_
*158 _148_
*159 _149_
*160 _150_
*161 _151_
*162 _152_
*163 _153_
*164 _154_
*165 _155_
*166 _156_
*167 _157_
*168 _158_
*169 _159_
*170 _160_
*171 _161_
*172 _162_
*173 _163_
*174 _164_
*175 _165_
*176 _166_
*177 _167_
*178 _168_
*179 _169_
*180 _170_
*181 _171_
*182 _172_
*183 _173_
*184 _174_
*185 _175_
*186 _176_
*187 _177_
*188 _178_
*189 _179_
*190 _180_
*191 _181_
*192 _182_
*193 _183_
*194 _184_
*195 _185_
*196 _186_
*197 _187_
*198 _188_
*199 _189_
*200 _190_
*201 _191_
*202 _192_
*203 _193_
*204 _194_
*205 _195_
*206 _196_
*207 _197_
*208 _198_
*209 _199_
*210 _200_
*211 _201_
*212 _202_
*213 clknet_0__037_
*214 clknet_0_divider\.out
*215 clknet_0_divider2\.out
*216 clknet_0_ext_clk
*217 clknet_0_net11
*218 clknet_0_pll_clk
*219 clknet_0_pll_clk90
*220 clknet_1_0__leaf__037_
*221 clknet_1_0__leaf_divider\.out
*222 clknet_1_0__leaf_divider2\.out
*223 clknet_1_0__leaf_ext_clk
*224 clknet_1_0__leaf_pll_clk
*225 clknet_1_0__leaf_pll_clk90
*226 clknet_1_1__leaf__037_
*227 clknet_1_1__leaf_divider\.out
*228 clknet_1_1__leaf_divider2\.out
*229 clknet_1_1__leaf_ext_clk
*230 clknet_1_1__leaf_net11
*231 clknet_1_1__leaf_pll_clk
*232 clknet_1_1__leaf_pll_clk90
*233 divider\.even_0\.N\[0\]
*234 divider\.even_0\.N\[1\]
*235 divider\.even_0\.N\[2\]
*236 divider\.even_0\.counter\[0\]
*237 divider\.even_0\.counter\[1\]
*238 divider\.even_0\.counter\[2\]
*239 divider\.even_0\.out_counter
*240 divider\.even_0\.resetb
*241 divider\.odd_0\.counter2\[0\]
*242 divider\.odd_0\.counter2\[1\]
*243 divider\.odd_0\.counter2\[2\]
*244 divider\.odd_0\.counter\[0\]
*245 divider\.odd_0\.counter\[1\]
*246 divider\.odd_0\.counter\[2\]
*247 divider\.odd_0\.initial_begin\[0\]
*248 divider\.odd_0\.initial_begin\[1\]
*249 divider\.odd_0\.initial_begin\[2\]
*250 divider\.odd_0\.old_N\[0\]
*251 divider\.odd_0\.old_N\[1\]
*252 divider\.odd_0\.old_N\[2\]
*253 divider\.odd_0\.out_counter
*254 divider\.odd_0\.out_counter2
*255 divider\.odd_0\.rst_pulse
*256 divider\.out
*257 divider\.syncNp\[0\]
*258 divider\.syncNp\[1\]
*259 divider\.syncNp\[2\]
*260 divider2\.even_0\.N\[0\]
*261 divider2\.even_0\.N\[1\]
*262 divider2\.even_0\.N\[2\]
*263 divider2\.even_0\.counter\[0\]
*264 divider2\.even_0\.counter\[1\]
*265 divider2\.even_0\.counter\[2\]
*266 divider2\.even_0\.out_counter
*267 divider2\.odd_0\.counter2\[0\]
*268 divider2\.odd_0\.counter2\[1\]
*269 divider2\.odd_0\.counter2\[2\]
*270 divider2\.odd_0\.counter\[0\]
*271 divider2\.odd_0\.counter\[1\]
*272 divider2\.odd_0\.counter\[2\]
*273 divider2\.odd_0\.initial_begin\[0\]
*274 divider2\.odd_0\.initial_begin\[1\]
*275 divider2\.odd_0\.initial_begin\[2\]
*276 divider2\.odd_0\.old_N\[0\]
*277 divider2\.odd_0\.old_N\[1\]
*278 divider2\.odd_0\.old_N\[2\]
*279 divider2\.odd_0\.out_counter
*280 divider2\.odd_0\.out_counter2
*281 divider2\.odd_0\.rst_pulse
*282 divider2\.out
*283 divider2\.syncNp\[0\]
*284 divider2\.syncNp\[1\]
*285 divider2\.syncNp\[2\]
*286 ext_clk_syncd
*287 ext_clk_syncd_pre
*288 net1
*289 net10
*290 net11
*291 net12
*292 net13
*293 net14
*294 net15
*295 net16
*296 net17
*297 net18
*298 net19
*299 net2
*300 net20
*301 net21
*302 net22
*303 net23
*304 net24
*305 net25
*306 net26
*307 net27
*308 net28
*309 net29
*310 net3
*311 net30
*312 net31
*313 net32
*314 net33
*315 net34
*316 net35
*317 net36
*318 net37
*319 net38
*320 net39
*321 net4
*322 net40
*323 net41
*324 net42
*325 net43
*326 net44
*327 net45
*328 net46
*329 net47
*330 net5
*331 net6
*332 net7
*333 net8
*334 net9
*335 pll_clk_sel
*336 reset_delay\[0\]
*337 reset_delay\[1\]
*338 reset_delay\[2\]
*339 use_pll_first
*340 use_pll_second
*341 user_clk_buffered
*342 ANTENNA__216__A1
*343 ANTENNA__217__A1
*344 ANTENNA__222__A1
*345 ANTENNA__223__A1
*346 ANTENNA__235__A1
*347 ANTENNA__237__A1
*348 ANTENNA__238__A1
*349 ANTENNA__239__A1
*350 ANTENNA__240__A1
*351 ANTENNA__241__A1
*352 ANTENNA__242__A1
*353 ANTENNA__243__A1
*354 ANTENNA__244__A1
*355 ANTENNA__267__A
*356 ANTENNA__267__B
*357 ANTENNA__268__A1
*358 ANTENNA__268__A2
*359 ANTENNA__268__B1
*360 ANTENNA__270__A2
*361 ANTENNA__283__B
*362 ANTENNA__284__A2
*363 ANTENNA__285__A2
*364 ANTENNA__286__A2
*365 ANTENNA__288__A2
*366 ANTENNA__312__A
*367 ANTENNA__328__A
*368 ANTENNA__328__B
*369 ANTENNA__330__A
*370 ANTENNA__330__B
*371 ANTENNA__330__C
*372 ANTENNA__331__B1
*373 ANTENNA__345__A1
*374 ANTENNA__345__A2
*375 ANTENNA__345__B1
*376 ANTENNA__377__A
*377 ANTENNA__381__A_N
*378 ANTENNA__382__B
*379 ANTENNA__384__A
*380 ANTENNA__385__A
*381 ANTENNA__400__A2
*382 ANTENNA__403__S
*383 ANTENNA__404__S
*384 ANTENNA__405__A
*385 ANTENNA__406__A1
*386 ANTENNA__414__SET_B
*387 ANTENNA__422__D
*388 ANTENNA__426__RESET_B
*389 ANTENNA__427__SET_B
*390 ANTENNA__428__RESET_B
*391 ANTENNA__429__SET_B
*392 ANTENNA__433__RESET_B
*393 ANTENNA__434__SET_B
*394 ANTENNA__435__RESET_B
*395 ANTENNA__443__SET_B
*396 ANTENNA__444__RESET_B
*397 ANTENNA__446__D
*398 ANTENNA__447__D
*399 ANTENNA__448__D
*400 ANTENNA__461__SET_B
*401 ANTENNA_clkbuf_0_ext_clk_A
*402 ANTENNA_clkbuf_0_pll_clk90_A
*403 ANTENNA_clkbuf_0_pll_clk_A
*404 ANTENNA_fanout27_A
*405 ANTENNA_input10_A
*406 ANTENNA_input1_A
*407 ANTENNA_input2_A
*408 ANTENNA_input3_A
*409 ANTENNA_input4_A
*410 ANTENNA_input5_A
*411 ANTENNA_input6_A
*412 ANTENNA_input7_A
*413 ANTENNA_input8_A
*414 ANTENNA_input9_A
*415 FILLER_0_105
*416 FILLER_0_11
*417 FILLER_0_118
*418 FILLER_0_131
*419 FILLER_0_14
*420 FILLER_0_144
*421 FILLER_0_157
*422 FILLER_0_170
*423 FILLER_0_183
*424 FILLER_0_196
*425 FILLER_0_27
*426 FILLER_0_3
*427 FILLER_0_40
*428 FILLER_0_53
*429 FILLER_0_66
*430 FILLER_0_79
*431 FILLER_0_92
*432 FILLER_10_101
*433 FILLER_10_105
*434 FILLER_10_11
*435 FILLER_10_118
*436 FILLER_10_139
*437 FILLER_10_14
*438 FILLER_10_144
*439 FILLER_10_162
*440 FILLER_10_166
*441 FILLER_10_170
*442 FILLER_10_194
*443 FILLER_10_196
*444 FILLER_10_199
*445 FILLER_10_22
*446 FILLER_10_26
*447 FILLER_10_3
*448 FILLER_10_38
*449 FILLER_10_40
*450 FILLER_10_50
*451 FILLER_10_55
*452 FILLER_10_64
*453 FILLER_10_66
*454 FILLER_10_88
*455 FILLER_10_92
*456 FILLER_11_103
*457 FILLER_11_105
*458 FILLER_11_117
*459 FILLER_11_124
*460 FILLER_11_131
*461 FILLER_11_137
*462 FILLER_11_145
*463 FILLER_11_153
*464 FILLER_11_157
*465 FILLER_11_163
*466 FILLER_11_166
*467 FILLER_11_170
*468 FILLER_11_173
*469 FILLER_11_177
*470 FILLER_11_181
*471 FILLER_11_183
*472 FILLER_11_187
*473 FILLER_11_19
*474 FILLER_11_194
*475 FILLER_11_199
*476 FILLER_11_25
*477 FILLER_11_27
*478 FILLER_11_3
*479 FILLER_11_49
*480 FILLER_11_53
*481 FILLER_11_75
*482 FILLER_11_79
*483 FILLER_11_9
*484 FILLER_12_103
*485 FILLER_12_11
*486 FILLER_12_115
*487 FILLER_12_118
*488 FILLER_12_123
*489 FILLER_12_135
*490 FILLER_12_14
*491 FILLER_12_144
*492 FILLER_12_168
*493 FILLER_12_170
*494 FILLER_12_189
*495 FILLER_12_194
*496 FILLER_12_196
*497 FILLER_12_199
*498 FILLER_12_3
*499 FILLER_12_38
*500 FILLER_12_40
*501 FILLER_12_43
*502 FILLER_12_51
*503 FILLER_12_59
*504 FILLER_12_63
*505 FILLER_12_66
*506 FILLER_12_78
*507 FILLER_12_82
*508 FILLER_12_90
*509 FILLER_12_92
*510 FILLER_12_97
*511 FILLER_13_103
*512 FILLER_13_105
*513 FILLER_13_129
*514 FILLER_13_13
*515 FILLER_13_131
*516 FILLER_13_137
*517 FILLER_13_149
*518 FILLER_13_155
*519 FILLER_13_157
*520 FILLER_13_178
*521 FILLER_13_183
*522 FILLER_13_191
*523 FILLER_13_197
*524 FILLER_13_25
*525 FILLER_13_27
*526 FILLER_13_3
*527 FILLER_13_39
*528 FILLER_13_51
*529 FILLER_13_53
*530 FILLER_13_75
*531 FILLER_13_79
*532 FILLER_13_82
*533 FILLER_13_90
*534 FILLER_13_95
*535 FILLER_14_116
*536 FILLER_14_118
*537 FILLER_14_125
*538 FILLER_14_137
*539 FILLER_14_14
*540 FILLER_14_144
*541 FILLER_14_147
*542 FILLER_14_161
*543 FILLER_14_167
*544 FILLER_14_170
*545 FILLER_14_173
*546 FILLER_14_192
*547 FILLER_14_196
*548 FILLER_14_199
*549 FILLER_14_24
*550 FILLER_14_3
*551 FILLER_14_36
*552 FILLER_14_40
*553 FILLER_14_52
*554 FILLER_14_60
*555 FILLER_14_64
*556 FILLER_14_66
*557 FILLER_14_78
*558 FILLER_14_84
*559 FILLER_14_89
*560 FILLER_14_9
*561 FILLER_14_92
*562 FILLER_15_105
*563 FILLER_15_126
*564 FILLER_15_131
*565 FILLER_15_141
*566 FILLER_15_145
*567 FILLER_15_149
*568 FILLER_15_15
*569 FILLER_15_153
*570 FILLER_15_157
*571 FILLER_15_178
*572 FILLER_15_183
*573 FILLER_15_190
*574 FILLER_15_198
*575 FILLER_15_21
*576 FILLER_15_25
*577 FILLER_15_27
*578 FILLER_15_3
*579 FILLER_15_34
*580 FILLER_15_50
*581 FILLER_15_53
*582 FILLER_15_57
*583 FILLER_15_60
*584 FILLER_15_65
*585 FILLER_15_73
*586 FILLER_15_77
*587 FILLER_15_79
*588 FILLER_15_86
*589 FILLER_15_92
*590 FILLER_15_96
*591 FILLER_16_116
*592 FILLER_16_118
*593 FILLER_16_12
*594 FILLER_16_139
*595 FILLER_16_14
*596 FILLER_16_144
*597 FILLER_16_151
*598 FILLER_16_155
*599 FILLER_16_163
*600 FILLER_16_168
*601 FILLER_16_170
*602 FILLER_16_187
*603 FILLER_16_193
*604 FILLER_16_196
*605 FILLER_16_199
*606 FILLER_16_25
*607 FILLER_16_3
*608 FILLER_16_30
*609 FILLER_16_38
*610 FILLER_16_40
*611 FILLER_16_49
*612 FILLER_16_54
*613 FILLER_16_62
*614 FILLER_16_66
*615 FILLER_16_90
*616 FILLER_16_92
*617 FILLER_17_103
*618 FILLER_17_105
*619 FILLER_17_11
*620 FILLER_17_117
*621 FILLER_17_129
*622 FILLER_17_131
*623 FILLER_17_143
*624 FILLER_17_15
*625 FILLER_17_150
*626 FILLER_17_157
*627 FILLER_17_179
*628 FILLER_17_183
*629 FILLER_17_192
*630 FILLER_17_199
*631 FILLER_17_25
*632 FILLER_17_27
*633 FILLER_17_3
*634 FILLER_17_48
*635 FILLER_17_53
*636 FILLER_17_61
*637 FILLER_17_67
*638 FILLER_17_7
*639 FILLER_17_77
*640 FILLER_17_79
*641 FILLER_17_91
*642 FILLER_17_99
*643 FILLER_18_104
*644 FILLER_18_11
*645 FILLER_18_112
*646 FILLER_18_116
*647 FILLER_18_118
*648 FILLER_18_14
*649 FILLER_18_142
*650 FILLER_18_144
*651 FILLER_18_165
*652 FILLER_18_170
*653 FILLER_18_179
*654 FILLER_18_185
*655 FILLER_18_192
*656 FILLER_18_196
*657 FILLER_18_199
*658 FILLER_18_3
*659 FILLER_18_38
*660 FILLER_18_40
*661 FILLER_18_57
*662 FILLER_18_66
*663 FILLER_18_81
*664 FILLER_18_90
*665 FILLER_18_92
*666 FILLER_19_103
*667 FILLER_19_105
*668 FILLER_19_11
*669 FILLER_19_127
*670 FILLER_19_131
*671 FILLER_19_143
*672 FILLER_19_155
*673 FILLER_19_157
*674 FILLER_19_162
*675 FILLER_19_166
*676 FILLER_19_170
*677 FILLER_19_181
*678 FILLER_19_183
*679 FILLER_19_186
*680 FILLER_19_190
*681 FILLER_19_194
*682 FILLER_19_199
*683 FILLER_19_21
*684 FILLER_19_25
*685 FILLER_19_27
*686 FILLER_19_3
*687 FILLER_19_48
*688 FILLER_19_53
*689 FILLER_19_74
*690 FILLER_19_79
*691 FILLER_19_85
*692 FILLER_19_88
*693 FILLER_19_99
*694 FILLER_1_102
*695 FILLER_1_105
*696 FILLER_1_111
*697 FILLER_1_123
*698 FILLER_1_129
*699 FILLER_1_131
*700 FILLER_1_139
*701 FILLER_1_145
*702 FILLER_1_15
*703 FILLER_1_153
*704 FILLER_1_157
*705 FILLER_1_163
*706 FILLER_1_168
*707 FILLER_1_173
*708 FILLER_1_181
*709 FILLER_1_183
*710 FILLER_1_191
*711 FILLER_1_199
*712 FILLER_1_23
*713 FILLER_1_27
*714 FILLER_1_3
*715 FILLER_1_31
*716 FILLER_1_37
*717 FILLER_1_43
*718 FILLER_1_49
*719 FILLER_1_53
*720 FILLER_1_63
*721 FILLER_1_75
*722 FILLER_1_79
*723 FILLER_1_94
*724 FILLER_20_103
*725 FILLER_20_11
*726 FILLER_20_116
*727 FILLER_20_118
*728 FILLER_20_122
*729 FILLER_20_134
*730 FILLER_20_14
*731 FILLER_20_142
*732 FILLER_20_144
*733 FILLER_20_165
*734 FILLER_20_170
*735 FILLER_20_194
*736 FILLER_20_196
*737 FILLER_20_24
*738 FILLER_20_3
*739 FILLER_20_36
*740 FILLER_20_40
*741 FILLER_20_52
*742 FILLER_20_60
*743 FILLER_20_64
*744 FILLER_20_66
*745 FILLER_20_87
*746 FILLER_20_92
*747 FILLER_21_100
*748 FILLER_21_105
*749 FILLER_21_11
*750 FILLER_21_112
*751 FILLER_21_123
*752 FILLER_21_129
*753 FILLER_21_131
*754 FILLER_21_135
*755 FILLER_21_153
*756 FILLER_21_157
*757 FILLER_21_160
*758 FILLER_21_168
*759 FILLER_21_177
*760 FILLER_21_181
*761 FILLER_21_183
*762 FILLER_21_187
*763 FILLER_21_199
*764 FILLER_21_22
*765 FILLER_21_27
*766 FILLER_21_3
*767 FILLER_21_39
*768 FILLER_21_51
*769 FILLER_21_53
*770 FILLER_21_59
*771 FILLER_21_65
*772 FILLER_21_71
*773 FILLER_21_77
*774 FILLER_21_79
*775 FILLER_22_104
*776 FILLER_22_11
*777 FILLER_22_115
*778 FILLER_22_118
*779 FILLER_22_14
*780 FILLER_22_142
*781 FILLER_22_144
*782 FILLER_22_168
*783 FILLER_22_170
*784 FILLER_22_181
*785 FILLER_22_190
*786 FILLER_22_194
*787 FILLER_22_196
*788 FILLER_22_3
*789 FILLER_22_37
*790 FILLER_22_40
*791 FILLER_22_58
*792 FILLER_22_62
*793 FILLER_22_66
*794 FILLER_22_78
*795 FILLER_22_87
*796 FILLER_22_92
*797 FILLER_23_103
*798 FILLER_23_105
*799 FILLER_23_112
*800 FILLER_23_120
*801 FILLER_23_129
*802 FILLER_23_131
*803 FILLER_23_141
*804 FILLER_23_147
*805 FILLER_23_155
*806 FILLER_23_157
*807 FILLER_23_181
*808 FILLER_23_183
*809 FILLER_23_187
*810 FILLER_23_19
*811 FILLER_23_195
*812 FILLER_23_199
*813 FILLER_23_25
*814 FILLER_23_27
*815 FILLER_23_3
*816 FILLER_23_33
*817 FILLER_23_38
*818 FILLER_23_50
*819 FILLER_23_53
*820 FILLER_23_71
*821 FILLER_23_77
*822 FILLER_23_79
*823 FILLER_23_9
*824 FILLER_24_100
*825 FILLER_24_11
*826 FILLER_24_112
*827 FILLER_24_116
*828 FILLER_24_118
*829 FILLER_24_14
*830 FILLER_24_140
*831 FILLER_24_144
*832 FILLER_24_152
*833 FILLER_24_157
*834 FILLER_24_166
*835 FILLER_24_170
*836 FILLER_24_194
*837 FILLER_24_196
*838 FILLER_24_3
*839 FILLER_24_38
*840 FILLER_24_40
*841 FILLER_24_64
*842 FILLER_24_66
*843 FILLER_24_74
*844 FILLER_24_83
*845 FILLER_24_92
*846 FILLER_24_96
*847 FILLER_25_103
*848 FILLER_25_105
*849 FILLER_25_108
*850 FILLER_25_125
*851 FILLER_25_129
*852 FILLER_25_131
*853 FILLER_25_138
*854 FILLER_25_144
*855 FILLER_25_148
*856 FILLER_25_155
*857 FILLER_25_157
*858 FILLER_25_16
*859 FILLER_25_181
*860 FILLER_25_183
*861 FILLER_25_192
*862 FILLER_25_197
*863 FILLER_25_24
*864 FILLER_25_27
*865 FILLER_25_3
*866 FILLER_25_40
*867 FILLER_25_53
*868 FILLER_25_75
*869 FILLER_25_79
*870 FILLER_25_92
*871 FILLER_26_102
*872 FILLER_26_11
*873 FILLER_26_111
*874 FILLER_26_118
*875 FILLER_26_128
*876 FILLER_26_136
*877 FILLER_26_14
*878 FILLER_26_142
*879 FILLER_26_144
*880 FILLER_26_156
*881 FILLER_26_160
*882 FILLER_26_168
*883 FILLER_26_170
*884 FILLER_26_194
*885 FILLER_26_196
*886 FILLER_26_199
*887 FILLER_26_3
*888 FILLER_26_38
*889 FILLER_26_40
*890 FILLER_26_44
*891 FILLER_26_54
*892 FILLER_26_64
*893 FILLER_26_66
*894 FILLER_26_87
*895 FILLER_26_92
*896 FILLER_27_103
*897 FILLER_27_105
*898 FILLER_27_113
*899 FILLER_27_119
*900 FILLER_27_129
*901 FILLER_27_131
*902 FILLER_27_141
*903 FILLER_27_145
*904 FILLER_27_155
*905 FILLER_27_157
*906 FILLER_27_178
*907 FILLER_27_183
*908 FILLER_27_192
*909 FILLER_27_199
*910 FILLER_27_20
*911 FILLER_27_27
*912 FILLER_27_3
*913 FILLER_27_39
*914 FILLER_27_51
*915 FILLER_27_53
*916 FILLER_27_75
*917 FILLER_27_79
*918 FILLER_27_9
*919 FILLER_28_101
*920 FILLER_28_105
*921 FILLER_28_11
*922 FILLER_28_111
*923 FILLER_28_118
*924 FILLER_28_139
*925 FILLER_28_14
*926 FILLER_28_144
*927 FILLER_28_165
*928 FILLER_28_170
*929 FILLER_28_192
*930 FILLER_28_196
*931 FILLER_28_24
*932 FILLER_28_29
*933 FILLER_28_3
*934 FILLER_28_37
*935 FILLER_28_40
*936 FILLER_28_62
*937 FILLER_28_66
*938 FILLER_28_77
*939 FILLER_28_84
*940 FILLER_28_90
*941 FILLER_28_92
*942 FILLER_29_102
*943 FILLER_29_105
*944 FILLER_29_126
*945 FILLER_29_131
*946 FILLER_29_136
*947 FILLER_29_141
*948 FILLER_29_147
*949 FILLER_29_15
*950 FILLER_29_155
*951 FILLER_29_157
*952 FILLER_29_167
*953 FILLER_29_172
*954 FILLER_29_180
*955 FILLER_29_183
*956 FILLER_29_191
*957 FILLER_29_194
*958 FILLER_29_199
*959 FILLER_29_23
*960 FILLER_29_27
*961 FILLER_29_3
*962 FILLER_29_48
*963 FILLER_29_53
*964 FILLER_29_75
*965 FILLER_29_79
*966 FILLER_2_102
*967 FILLER_2_108
*968 FILLER_2_11
*969 FILLER_2_116
*970 FILLER_2_118
*971 FILLER_2_131
*972 FILLER_2_14
*973 FILLER_2_141
*974 FILLER_2_144
*975 FILLER_2_149
*976 FILLER_2_154
*977 FILLER_2_166
*978 FILLER_2_170
*979 FILLER_2_182
*980 FILLER_2_194
*981 FILLER_2_196
*982 FILLER_2_199
*983 FILLER_2_21
*984 FILLER_2_3
*985 FILLER_2_38
*986 FILLER_2_40
*987 FILLER_2_51
*988 FILLER_2_64
*989 FILLER_2_66
*990 FILLER_2_69
*991 FILLER_2_82
*992 FILLER_2_90
*993 FILLER_2_92
*994 FILLER_30_11
*995 FILLER_30_116
*996 FILLER_30_118
*997 FILLER_30_126
*998 FILLER_30_133
*999 FILLER_30_14
*1000 FILLER_30_140
*1001 FILLER_30_144
*1002 FILLER_30_160
*1003 FILLER_30_168
*1004 FILLER_30_170
*1005 FILLER_30_192
*1006 FILLER_30_196
*1007 FILLER_30_21
*1008 FILLER_30_28
*1009 FILLER_30_3
*1010 FILLER_30_33
*1011 FILLER_30_38
*1012 FILLER_30_40
*1013 FILLER_30_52
*1014 FILLER_30_64
*1015 FILLER_30_66
*1016 FILLER_30_88
*1017 FILLER_30_92
*1018 FILLER_31_103
*1019 FILLER_31_105
*1020 FILLER_31_126
*1021 FILLER_31_131
*1022 FILLER_31_137
*1023 FILLER_31_15
*1024 FILLER_31_154
*1025 FILLER_31_157
*1026 FILLER_31_181
*1027 FILLER_31_183
*1028 FILLER_31_193
*1029 FILLER_31_199
*1030 FILLER_31_23
*1031 FILLER_31_27
*1032 FILLER_31_3
*1033 FILLER_31_48
*1034 FILLER_31_53
*1035 FILLER_31_77
*1036 FILLER_31_79
*1037 FILLER_32_101
*1038 FILLER_32_105
*1039 FILLER_32_11
*1040 FILLER_32_115
*1041 FILLER_32_118
*1042 FILLER_32_126
*1043 FILLER_32_131
*1044 FILLER_32_14
*1045 FILLER_32_144
*1046 FILLER_32_155
*1047 FILLER_32_157
*1048 FILLER_32_167
*1049 FILLER_32_170
*1050 FILLER_32_175
*1051 FILLER_32_18
*1052 FILLER_32_181
*1053 FILLER_32_183
*1054 FILLER_32_194
*1055 FILLER_32_196
*1056 FILLER_32_199
*1057 FILLER_32_22
*1058 FILLER_32_27
*1059 FILLER_32_3
*1060 FILLER_32_35
*1061 FILLER_32_38
*1062 FILLER_32_40
*1063 FILLER_32_51
*1064 FILLER_32_53
*1065 FILLER_32_56
*1066 FILLER_32_64
*1067 FILLER_32_66
*1068 FILLER_32_73
*1069 FILLER_32_77
*1070 FILLER_32_79
*1071 FILLER_32_88
*1072 FILLER_32_92
*1073 FILLER_3_103
*1074 FILLER_3_105
*1075 FILLER_3_110
*1076 FILLER_3_116
*1077 FILLER_3_128
*1078 FILLER_3_131
*1079 FILLER_3_15
*1080 FILLER_3_152
*1081 FILLER_3_157
*1082 FILLER_3_165
*1083 FILLER_3_169
*1084 FILLER_3_181
*1085 FILLER_3_183
*1086 FILLER_3_189
*1087 FILLER_3_195
*1088 FILLER_3_199
*1089 FILLER_3_25
*1090 FILLER_3_27
*1091 FILLER_3_3
*1092 FILLER_3_39
*1093 FILLER_3_51
*1094 FILLER_3_53
*1095 FILLER_3_57
*1096 FILLER_3_65
*1097 FILLER_3_77
*1098 FILLER_3_79
*1099 FILLER_3_91
*1100 FILLER_4_10
*1101 FILLER_4_109
*1102 FILLER_4_113
*1103 FILLER_4_118
*1104 FILLER_4_126
*1105 FILLER_4_135
*1106 FILLER_4_14
*1107 FILLER_4_142
*1108 FILLER_4_144
*1109 FILLER_4_153
*1110 FILLER_4_157
*1111 FILLER_4_170
*1112 FILLER_4_180
*1113 FILLER_4_184
*1114 FILLER_4_189
*1115 FILLER_4_194
*1116 FILLER_4_196
*1117 FILLER_4_199
*1118 FILLER_4_24
*1119 FILLER_4_3
*1120 FILLER_4_36
*1121 FILLER_4_40
*1122 FILLER_4_44
*1123 FILLER_4_52
*1124 FILLER_4_64
*1125 FILLER_4_66
*1126 FILLER_4_69
*1127 FILLER_4_81
*1128 FILLER_4_89
*1129 FILLER_4_92
*1130 FILLER_5_103
*1131 FILLER_5_105
*1132 FILLER_5_117
*1133 FILLER_5_129
*1134 FILLER_5_131
*1135 FILLER_5_141
*1136 FILLER_5_15
*1137 FILLER_5_154
*1138 FILLER_5_157
*1139 FILLER_5_178
*1140 FILLER_5_183
*1141 FILLER_5_193
*1142 FILLER_5_198
*1143 FILLER_5_23
*1144 FILLER_5_27
*1145 FILLER_5_3
*1146 FILLER_5_34
*1147 FILLER_5_41
*1148 FILLER_5_50
*1149 FILLER_5_53
*1150 FILLER_5_61
*1151 FILLER_5_73
*1152 FILLER_5_77
*1153 FILLER_5_79
*1154 FILLER_5_91
*1155 FILLER_6_102
*1156 FILLER_6_107
*1157 FILLER_6_11
*1158 FILLER_6_111
*1159 FILLER_6_118
*1160 FILLER_6_128
*1161 FILLER_6_132
*1162 FILLER_6_14
*1163 FILLER_6_142
*1164 FILLER_6_144
*1165 FILLER_6_168
*1166 FILLER_6_170
*1167 FILLER_6_183
*1168 FILLER_6_194
*1169 FILLER_6_196
*1170 FILLER_6_24
*1171 FILLER_6_3
*1172 FILLER_6_32
*1173 FILLER_6_38
*1174 FILLER_6_40
*1175 FILLER_6_52
*1176 FILLER_6_64
*1177 FILLER_6_66
*1178 FILLER_6_76
*1179 FILLER_6_82
*1180 FILLER_6_87
*1181 FILLER_6_92
*1182 FILLER_7_103
*1183 FILLER_7_105
*1184 FILLER_7_112
*1185 FILLER_7_116
*1186 FILLER_7_126
*1187 FILLER_7_13
*1188 FILLER_7_131
*1189 FILLER_7_141
*1190 FILLER_7_150
*1191 FILLER_7_157
*1192 FILLER_7_18
*1193 FILLER_7_181
*1194 FILLER_7_183
*1195 FILLER_7_186
*1196 FILLER_7_196
*1197 FILLER_7_27
*1198 FILLER_7_3
*1199 FILLER_7_39
*1200 FILLER_7_43
*1201 FILLER_7_51
*1202 FILLER_7_53
*1203 FILLER_7_56
*1204 FILLER_7_68
*1205 FILLER_7_75
*1206 FILLER_7_79
*1207 FILLER_7_9
*1208 FILLER_7_90
*1209 FILLER_7_95
*1210 FILLER_8_105
*1211 FILLER_8_11
*1212 FILLER_8_113
*1213 FILLER_8_118
*1214 FILLER_8_128
*1215 FILLER_8_132
*1216 FILLER_8_14
*1217 FILLER_8_140
*1218 FILLER_8_144
*1219 FILLER_8_165
*1220 FILLER_8_170
*1221 FILLER_8_182
*1222 FILLER_8_19
*1223 FILLER_8_194
*1224 FILLER_8_196
*1225 FILLER_8_3
*1226 FILLER_8_34
*1227 FILLER_8_38
*1228 FILLER_8_40
*1229 FILLER_8_50
*1230 FILLER_8_54
*1231 FILLER_8_60
*1232 FILLER_8_64
*1233 FILLER_8_66
*1234 FILLER_8_74
*1235 FILLER_8_80
*1236 FILLER_8_84
*1237 FILLER_8_88
*1238 FILLER_8_92
*1239 FILLER_9_103
*1240 FILLER_9_105
*1241 FILLER_9_108
*1242 FILLER_9_120
*1243 FILLER_9_129
*1244 FILLER_9_131
*1245 FILLER_9_15
*1246 FILLER_9_153
*1247 FILLER_9_157
*1248 FILLER_9_181
*1249 FILLER_9_183
*1250 FILLER_9_19
*1251 FILLER_9_191
*1252 FILLER_9_194
*1253 FILLER_9_199
*1254 FILLER_9_24
*1255 FILLER_9_27
*1256 FILLER_9_3
*1257 FILLER_9_47
*1258 FILLER_9_51
*1259 FILLER_9_53
*1260 FILLER_9_75
*1261 FILLER_9_79
*1262 PHY_0
*1263 PHY_1
*1264 PHY_10
*1265 PHY_11
*1266 PHY_12
*1267 PHY_13
*1268 PHY_14
*1269 PHY_15
*1270 PHY_16
*1271 PHY_17
*1272 PHY_18
*1273 PHY_19
*1274 PHY_2
*1275 PHY_20
*1276 PHY_21
*1277 PHY_22
*1278 PHY_23
*1279 PHY_24
*1280 PHY_25
*1281 PHY_26
*1282 PHY_27
*1283 PHY_28
*1284 PHY_29
*1285 PHY_3
*1286 PHY_30
*1287 PHY_31
*1288 PHY_32
*1289 PHY_33
*1290 PHY_34
*1291 PHY_35
*1292 PHY_36
*1293 PHY_37
*1294 PHY_38
*1295 PHY_39
*1296 PHY_4
*1297 PHY_40
*1298 PHY_41
*1299 PHY_42
*1300 PHY_43
*1301 PHY_44
*1302 PHY_45
*1303 PHY_46
*1304 PHY_47
*1305 PHY_48
*1306 PHY_49
*1307 PHY_5
*1308 PHY_50
*1309 PHY_51
*1310 PHY_52
*1311 PHY_53
*1312 PHY_54
*1313 PHY_55
*1314 PHY_56
*1315 PHY_57
*1316 PHY_58
*1317 PHY_59
*1318 PHY_6
*1319 PHY_60
*1320 PHY_61
*1321 PHY_62
*1322 PHY_63
*1323 PHY_64
*1324 PHY_65
*1325 PHY_7
*1326 PHY_8
*1327 PHY_9
*1328 TAP_100
*1329 TAP_101
*1330 TAP_102
*1331 TAP_103
*1332 TAP_104
*1333 TAP_105
*1334 TAP_106
*1335 TAP_107
*1336 TAP_108
*1337 TAP_109
*1338 TAP_110
*1339 TAP_111
*1340 TAP_112
*1341 TAP_113
*1342 TAP_114
*1343 TAP_115
*1344 TAP_116
*1345 TAP_117
*1346 TAP_118
*1347 TAP_119
*1348 TAP_120
*1349 TAP_121
*1350 TAP_122
*1351 TAP_123
*1352 TAP_124
*1353 TAP_125
*1354 TAP_126
*1355 TAP_127
*1356 TAP_128
*1357 TAP_129
*1358 TAP_130
*1359 TAP_131
*1360 TAP_132
*1361 TAP_133
*1362 TAP_134
*1363 TAP_135
*1364 TAP_136
*1365 TAP_137
*1366 TAP_138
*1367 TAP_139
*1368 TAP_140
*1369 TAP_141
*1370 TAP_142
*1371 TAP_143
*1372 TAP_144
*1373 TAP_145
*1374 TAP_146
*1375 TAP_147
*1376 TAP_148
*1377 TAP_149
*1378 TAP_150
*1379 TAP_151
*1380 TAP_152
*1381 TAP_153
*1382 TAP_154
*1383 TAP_155
*1384 TAP_156
*1385 TAP_157
*1386 TAP_158
*1387 TAP_159
*1388 TAP_160
*1389 TAP_161
*1390 TAP_162
*1391 TAP_163
*1392 TAP_164
*1393 TAP_165
*1394 TAP_166
*1395 TAP_167
*1396 TAP_168
*1397 TAP_169
*1398 TAP_170
*1399 TAP_171
*1400 TAP_172
*1401 TAP_173
*1402 TAP_174
*1403 TAP_175
*1404 TAP_176
*1405 TAP_177
*1406 TAP_178
*1407 TAP_179
*1408 TAP_180
*1409 TAP_181
*1410 TAP_182
*1411 TAP_183
*1412 TAP_184
*1413 TAP_185
*1414 TAP_186
*1415 TAP_187
*1416 TAP_188
*1417 TAP_189
*1418 TAP_190
*1419 TAP_191
*1420 TAP_192
*1421 TAP_193
*1422 TAP_194
*1423 TAP_195
*1424 TAP_196
*1425 TAP_197
*1426 TAP_198
*1427 TAP_199
*1428 TAP_200
*1429 TAP_201
*1430 TAP_202
*1431 TAP_203
*1432 TAP_204
*1433 TAP_205
*1434 TAP_206
*1435 TAP_207
*1436 TAP_208
*1437 TAP_209
*1438 TAP_210
*1439 TAP_211
*1440 TAP_212
*1441 TAP_213
*1442 TAP_214
*1443 TAP_215
*1444 TAP_216
*1445 TAP_217
*1446 TAP_218
*1447 TAP_219
*1448 TAP_220
*1449 TAP_221
*1450 TAP_222
*1451 TAP_223
*1452 TAP_224
*1453 TAP_225
*1454 TAP_226
*1455 TAP_227
*1456 TAP_228
*1457 TAP_229
*1458 TAP_230
*1459 TAP_231
*1460 TAP_232
*1461 TAP_233
*1462 TAP_234
*1463 TAP_235
*1464 TAP_236
*1465 TAP_237
*1466 TAP_238
*1467 TAP_239
*1468 TAP_240
*1469 TAP_241
*1470 TAP_242
*1471 TAP_243
*1472 TAP_244
*1473 TAP_245
*1474 TAP_246
*1475 TAP_247
*1476 TAP_248
*1477 TAP_249
*1478 TAP_250
*1479 TAP_251
*1480 TAP_252
*1481 TAP_253
*1482 TAP_254
*1483 TAP_255
*1484 TAP_256
*1485 TAP_257
*1486 TAP_258
*1487 TAP_259
*1488 TAP_260
*1489 TAP_261
*1490 TAP_262
*1491 TAP_263
*1492 TAP_264
*1493 TAP_265
*1494 TAP_266
*1495 TAP_267
*1496 TAP_268
*1497 TAP_269
*1498 TAP_270
*1499 TAP_271
*1500 TAP_272
*1501 TAP_273
*1502 TAP_274
*1503 TAP_275
*1504 TAP_276
*1505 TAP_277
*1506 TAP_278
*1507 TAP_279
*1508 TAP_280
*1509 TAP_281
*1510 TAP_282
*1511 TAP_283
*1512 TAP_284
*1513 TAP_285
*1514 TAP_286
*1515 TAP_287
*1516 TAP_288
*1517 TAP_289
*1518 TAP_290
*1519 TAP_291
*1520 TAP_292
*1521 TAP_293
*1522 TAP_294
*1523 TAP_295
*1524 TAP_296
*1525 TAP_297
*1526 TAP_298
*1527 TAP_299
*1528 TAP_300
*1529 TAP_301
*1530 TAP_302
*1531 TAP_303
*1532 TAP_304
*1533 TAP_305
*1534 TAP_306
*1535 TAP_307
*1536 TAP_308
*1537 TAP_309
*1538 TAP_310
*1539 TAP_311
*1540 TAP_312
*1541 TAP_313
*1542 TAP_314
*1543 TAP_315
*1544 TAP_316
*1545 TAP_317
*1546 TAP_318
*1547 TAP_319
*1548 TAP_320
*1549 TAP_321
*1550 TAP_322
*1551 TAP_323
*1552 TAP_324
*1553 TAP_325
*1554 TAP_326
*1555 TAP_327
*1556 TAP_66
*1557 TAP_67
*1558 TAP_68
*1559 TAP_69
*1560 TAP_70
*1561 TAP_71
*1562 TAP_72
*1563 TAP_73
*1564 TAP_74
*1565 TAP_75
*1566 TAP_76
*1567 TAP_77
*1568 TAP_78
*1569 TAP_79
*1570 TAP_80
*1571 TAP_81
*1572 TAP_82
*1573 TAP_83
*1574 TAP_84
*1575 TAP_85
*1576 TAP_86
*1577 TAP_87
*1578 TAP_88
*1579 TAP_89
*1580 TAP_90
*1581 TAP_91
*1582 TAP_92
*1583 TAP_93
*1584 TAP_94
*1585 TAP_95
*1586 TAP_96
*1587 TAP_97
*1588 TAP_98
*1589 TAP_99
*1590 _204_
*1591 _205_
*1592 _206_
*1593 _207_
*1594 _208_
*1595 _209_
*1596 _210_
*1597 _211_
*1598 _212_
*1599 _213_
*1600 _214_
*1601 _215_
*1602 _216_
*1603 _217_
*1604 _218_
*1605 _219_
*1606 _220_
*1607 _221_
*1608 _222_
*1609 _223_
*1610 _224_
*1611 _225_
*1612 _226_
*1613 _227_
*1614 _228_
*1615 _229_
*1616 _230_
*1617 _231_
*1618 _232_
*1619 _233_
*1620 _234_
*1621 _235_
*1622 _236_
*1623 _237_
*1624 _238_
*1625 _239_
*1626 _240_
*1627 _241_
*1628 _242_
*1629 _243_
*1630 _244_
*1631 _245_
*1632 _246_
*1633 _247_
*1634 _248_
*1635 _249_
*1636 _250_
*1637 _251_
*1638 _252_
*1639 _253_
*1640 _254_
*1641 _255_
*1642 _256_
*1643 _257__7
*1644 _258_
*1645 _259__4
*1646 _260_
*1647 _261_
*1648 _262__1
*1649 _263_
*1650 _264_
*1651 _265_
*1652 _266_
*1653 _267_
*1654 _268_
*1655 _269_
*1656 _270_
*1657 _271_
*1658 _272_
*1659 _273_
*1660 _274_
*1661 _275_
*1662 _276_
*1663 _277_
*1664 _278_
*1665 _279_
*1666 _280_
*1667 _281_
*1668 _282_
*1669 _283_
*1670 _284_
*1671 _285_
*1672 _286_
*1673 _287_
*1674 _288_
*1675 _289_
*1676 _290_
*1677 _291_
*1678 _292_
*1679 _293_
*1680 _294_
*1681 _295_
*1682 _296_
*1683 _297_
*1684 _298_
*1685 _299_
*1686 _300_
*1687 _301_
*1688 _302_
*1689 _303_
*1690 _304_
*1691 _305_
*1692 _306_
*1693 _307_
*1694 _308_
*1695 _309_
*1696 _310_
*1697 _311_
*1698 _312_
*1699 _313_
*1700 _314_
*1701 _315_
*1702 _316_
*1703 _317_
*1704 _318_
*1705 _319_
*1706 _320_
*1707 _321_
*1708 _322_
*1709 _323_
*1710 _324_
*1711 _325_
*1712 _326_
*1713 _327_
*1714 _328_
*1715 _329_
*1716 _330_
*1717 _331_
*1718 _332_
*1719 _333_
*1720 _334_
*1721 _335_
*1722 _336_
*1723 _337_
*1724 _338_
*1725 _339_
*1726 _340_
*1727 _341_
*1728 _342_
*1729 _343_
*1730 _344_
*1731 _345_
*1732 _346_
*1733 _347_
*1734 _348_
*1735 _349_
*1736 _350_
*1737 _351_
*1738 _352_
*1739 _353_
*1740 _354_
*1741 _355_
*1742 _356_
*1743 _357_
*1744 _358_
*1745 _359_
*1746 _360_
*1747 _361_
*1748 _362_
*1749 _363_
*1750 _364_
*1751 _365_
*1752 _366_
*1753 _367_
*1754 _368_
*1755 _369_
*1756 _370_
*1757 _371_
*1758 _372_
*1759 _373_
*1760 _374_
*1761 _375_
*1762 _376_
*1763 _377_
*1764 _378_
*1765 _379_
*1766 _380_
*1767 _381_
*1768 _382_
*1769 _383_
*1770 _384_
*1771 _385_
*1772 _386_
*1773 _387_
*1774 _388_
*1775 _389_
*1776 _390_
*1777 _391_
*1778 _392_
*1779 _393_
*1780 _394_
*1781 _395_
*1782 _396_
*1783 _397_
*1784 _398_
*1785 _399_
*1786 _400_
*1787 _401_
*1788 _402_
*1789 _403_
*1790 _404_
*1791 _405_
*1792 _406_
*1793 _407_
*1794 _408__8
*1795 _409__9
*1796 _410__5
*1797 _411__6
*1798 _412__2
*1799 _413__3
*1800 _414_
*1801 _415_
*1802 _416_
*1803 _416__32
*1804 _417_
*1805 _418_
*1806 _419_
*1807 _420_
*1808 _421_