*SPEF "ieee 1481-1999"
*DESIGN "caravel_clocking"
*DATE "11:11:11 Fri 11 11, 1111"
*VENDOR "OpenRCX"
*PROGRAM "Parallel Extraction"
*VERSION "1.0"
*DESIGN_FLOW "NAME_SCOPE LOCAL" "PIN_CAP NONE"
*DIVIDER /
*DELIMITER :
*BUS_DELIMITER []
*T_UNIT 1 NS
*C_UNIT 1 PF
*R_UNIT 1 OHM
*L_UNIT 1 HENRY

*NAME_MAP
*3 core_clk
*4 ext_clk
*5 ext_clk_sel
*6 ext_reset
*7 pll_clk
*8 pll_clk90
*9 resetb
*10 resetb_sync
*11 sel2[0]
*12 sel2[1]
*13 sel2[2]
*14 sel[0]
*15 sel[1]
*16 sel[2]
*17 user_clk
*18 _000_
*19 _001_
*20 _002_
*21 _003_
*22 _004_
*23 _005_
*24 _006_
*25 _007_
*26 _008_
*27 _009_
*28 _010_
*29 _011_
*30 _012_
*31 _013_
*32 _014_
*33 _015_
*34 _016_
*35 _017_
*36 _018_
*37 _019_
*38 _020_
*39 _021_
*40 _022_
*41 _023_
*42 _024_
*43 _025_
*44 _026_
*45 _027_
*46 _028_
*47 _029_
*48 _030_
*49 _031_
*50 _032_
*51 _033_
*52 _034_
*53 _035_
*54 _036_
*55 _037_
*56 _038_
*57 _039_
*58 _040_
*59 _041_
*60 _042_
*61 _043_
*62 _044_
*63 _045_
*64 _046_
*65 _047_
*66 _048_
*67 _049_
*68 _050_
*69 _051_
*70 _052_
*71 _053_
*72 _054_
*73 _055_
*74 _056_
*75 _057_
*76 _058_
*77 _059_
*78 _060_
*79 _061_
*80 _062_
*81 _063_
*82 _064_
*83 _065_
*84 _066_
*85 _067_
*86 _068_
*87 _069_
*88 _070_
*89 _071_
*90 _072_
*91 _073_
*92 _074_
*93 _075_
*94 _076_
*95 _077_
*96 _078_
*97 _088_
*98 _089_
*99 _090_
*100 _091_
*101 _092_
*102 _093_
*103 _094_
*104 _095_
*105 _096_
*106 _097_
*107 _098_
*108 _099_
*109 _100_
*110 _101_
*111 _102_
*112 _103_
*113 _104_
*114 _105_
*115 _106_
*116 _107_
*117 _108_
*118 _109_
*119 _110_
*120 _111_
*121 _112_
*122 _113_
*123 _114_
*124 _115_
*125 _116_
*126 _117_
*127 _118_
*128 _119_
*129 _120_
*130 _121_
*131 _122_
*132 _123_
*133 _124_
*134 _125_
*135 _126_
*136 _127_
*137 _128_
*138 _129_
*139 _130_
*140 _131_
*141 _132_
*142 _133_
*143 _134_
*144 _135_
*145 _136_
*146 _137_
*147 _138_
*148 _139_
*149 _140_
*150 _141_
*151 _142_
*152 _143_
*153 _144_
*154 _145_
*155 _146_
*156 _147_
*157 _148_
*158 _149_
*159 _150_
*160 _151_
*161 _152_
*162 _153_
*163 _154_
*164 _155_
*165 _156_
*166 _157_
*167 _158_
*168 _159_
*169 _160_
*170 _161_
*171 _162_
*172 _163_
*173 _164_
*174 _165_
*175 _166_
*176 _167_
*177 _168_
*178 _169_
*179 _170_
*180 _171_
*181 _172_
*182 _173_
*183 _174_
*184 _175_
*185 _176_
*186 _177_
*187 _178_
*188 _179_
*189 _180_
*190 _181_
*191 _182_
*192 _183_
*193 _184_
*194 _185_
*195 _186_
*196 _187_
*197 _188_
*198 _189_
*199 _190_
*200 _191_
*201 _192_
*202 _193_
*203 _194_
*204 _195_
*205 _196_
*206 _197_
*207 _198_
*208 _199_
*209 _200_
*210 clknet_0__037_
*211 clknet_0_divider\.out
*212 clknet_0_divider2\.out
*213 clknet_0_ext_clk
*214 clknet_0_net10
*215 clknet_0_pll_clk
*216 clknet_0_pll_clk90
*217 clknet_1_0__leaf__037_
*218 clknet_1_0__leaf_divider\.out
*219 clknet_1_0__leaf_divider2\.out
*220 clknet_1_0__leaf_ext_clk
*221 clknet_1_0__leaf_pll_clk
*222 clknet_1_0__leaf_pll_clk90
*223 clknet_1_1__leaf__037_
*224 clknet_1_1__leaf_divider\.out
*225 clknet_1_1__leaf_divider2\.out
*226 clknet_1_1__leaf_ext_clk
*227 clknet_1_1__leaf_net10
*228 clknet_1_1__leaf_pll_clk
*229 clknet_1_1__leaf_pll_clk90
*230 divider\.even_0\.N\[0\]
*231 divider\.even_0\.N\[1\]
*232 divider\.even_0\.N\[2\]
*233 divider\.even_0\.counter\[0\]
*234 divider\.even_0\.counter\[1\]
*235 divider\.even_0\.counter\[2\]
*236 divider\.even_0\.out_counter
*237 divider\.odd_0\.counter2\[0\]
*238 divider\.odd_0\.counter2\[1\]
*239 divider\.odd_0\.counter2\[2\]
*240 divider\.odd_0\.counter\[0\]
*241 divider\.odd_0\.counter\[1\]
*242 divider\.odd_0\.counter\[2\]
*243 divider\.odd_0\.initial_begin\[0\]
*244 divider\.odd_0\.initial_begin\[1\]
*245 divider\.odd_0\.initial_begin\[2\]
*246 divider\.odd_0\.old_N\[0\]
*247 divider\.odd_0\.old_N\[1\]
*248 divider\.odd_0\.old_N\[2\]
*249 divider\.odd_0\.out_counter
*250 divider\.odd_0\.out_counter2
*251 divider\.odd_0\.rst_pulse
*252 divider\.out
*253 divider\.syncNp\[0\]
*254 divider\.syncNp\[1\]
*255 divider\.syncNp\[2\]
*256 divider2\.even_0\.N\[0\]
*257 divider2\.even_0\.N\[1\]
*258 divider2\.even_0\.N\[2\]
*259 divider2\.even_0\.counter\[0\]
*260 divider2\.even_0\.counter\[1\]
*261 divider2\.even_0\.counter\[2\]
*262 divider2\.even_0\.out_counter
*263 divider2\.odd_0\.counter2\[0\]
*264 divider2\.odd_0\.counter2\[1\]
*265 divider2\.odd_0\.counter2\[2\]
*266 divider2\.odd_0\.counter\[0\]
*267 divider2\.odd_0\.counter\[1\]
*268 divider2\.odd_0\.counter\[2\]
*269 divider2\.odd_0\.initial_begin\[0\]
*270 divider2\.odd_0\.initial_begin\[1\]
*271 divider2\.odd_0\.initial_begin\[2\]
*272 divider2\.odd_0\.old_N\[0\]
*273 divider2\.odd_0\.old_N\[1\]
*274 divider2\.odd_0\.old_N\[2\]
*275 divider2\.odd_0\.out_counter
*276 divider2\.odd_0\.out_counter2
*277 divider2\.odd_0\.rst_pulse
*278 divider2\.out
*279 divider2\.syncNp\[0\]
*280 divider2\.syncNp\[1\]
*281 divider2\.syncNp\[2\]
*282 ext_clk_syncd
*283 ext_clk_syncd_pre
*284 net1
*285 net10
*286 net11
*287 net13
*288 net14
*289 net15
*290 net16
*291 net17
*292 net18
*293 net19
*294 net2
*295 net20
*296 net21
*297 net22
*298 net23
*299 net24
*300 net25
*301 net26
*302 net27
*303 net28
*304 net29
*305 net3
*306 net30
*307 net31
*308 net32
*309 net33
*310 net34
*311 net35
*312 net36
*313 net37
*314 net38
*315 net39
*316 net4
*317 net5
*318 net6
*319 net7
*320 net8
*321 net9
*322 pll_clk_sel
*323 reset_delay\[0\]
*324 reset_delay\[1\]
*325 reset_delay\[2\]
*326 use_pll_first
*327 use_pll_second
*328 user_clk_buffered
*329 ANTENNA__212__A1
*330 ANTENNA__213__A1
*331 ANTENNA__214__A1
*332 ANTENNA__215__A1
*333 ANTENNA__218__A1
*334 ANTENNA__219__A1
*335 ANTENNA__220__A1
*336 ANTENNA__221__A1
*337 ANTENNA__233__A1
*338 ANTENNA__234__A1
*339 ANTENNA__239__A1
*340 ANTENNA__240__A1
*341 ANTENNA__242__A0
*342 ANTENNA__264__A
*343 ANTENNA__265__A1
*344 ANTENNA__266__A1
*345 ANTENNA__267__A1
*346 ANTENNA__279__B
*347 ANTENNA__280__A2
*348 ANTENNA__280__B1
*349 ANTENNA__281__A2
*350 ANTENNA__281__B1
*351 ANTENNA__282__A2
*352 ANTENNA__282__B1
*353 ANTENNA__309__A
*354 ANTENNA__309__B
*355 ANTENNA__311__B
*356 ANTENNA__311__C
*357 ANTENNA__312__A1
*358 ANTENNA__312__A2
*359 ANTENNA__327__A
*360 ANTENNA__328__B1
*361 ANTENNA__342__A1
*362 ANTENNA__345__A_N
*363 ANTENNA__395__A2
*364 ANTENNA__395__B1
*365 ANTENNA__434__D
*366 ANTENNA__445__RESET_B
*367 ANTENNA__446__RESET_B
*368 ANTENNA__447__SET_B
*369 ANTENNA__448__RESET_B
*370 ANTENNA__450__RESET_B
*371 ANTENNA__451__SET_B
*372 ANTENNA__452__RESET_B
*373 ANTENNA__453__RESET_B
*374 ANTENNA__454__SET_B
*375 ANTENNA__455__RESET_B
*376 ANTENNA__459__RESET_B
*377 ANTENNA_clkbuf_0_ext_clk_A
*378 ANTENNA_clkbuf_0_pll_clk90_A
*379 ANTENNA_clkbuf_0_pll_clk_A
*380 ANTENNA_fanout27_A
*381 ANTENNA_input1_A
*382 ANTENNA_input2_A
*383 ANTENNA_input3_A
*384 ANTENNA_input4_A
*385 ANTENNA_input5_A
*386 ANTENNA_input6_A
*387 ANTENNA_input7_A
*388 ANTENNA_input8_A
*389 ANTENNA_input9_A
*390 FILLER_0_105
*391 FILLER_0_11
*392 FILLER_0_118
*393 FILLER_0_131
*394 FILLER_0_14
*395 FILLER_0_144
*396 FILLER_0_157
*397 FILLER_0_170
*398 FILLER_0_183
*399 FILLER_0_191
*400 FILLER_0_196
*401 FILLER_0_27
*402 FILLER_0_3
*403 FILLER_0_35
*404 FILLER_0_40
*405 FILLER_0_53
*406 FILLER_0_58
*407 FILLER_0_64
*408 FILLER_0_66
*409 FILLER_0_79
*410 FILLER_0_92
*411 FILLER_0_98
*412 FILLER_10_104
*413 FILLER_10_11
*414 FILLER_10_116
*415 FILLER_10_118
*416 FILLER_10_126
*417 FILLER_10_130
*418 FILLER_10_136
*419 FILLER_10_14
*420 FILLER_10_140
*421 FILLER_10_144
*422 FILLER_10_154
*423 FILLER_10_162
*424 FILLER_10_168
*425 FILLER_10_170
*426 FILLER_10_194
*427 FILLER_10_196
*428 FILLER_10_24
*429 FILLER_10_28
*430 FILLER_10_3
*431 FILLER_10_32
*432 FILLER_10_38
*433 FILLER_10_40
*434 FILLER_10_59
*435 FILLER_10_63
*436 FILLER_10_66
*437 FILLER_10_69
*438 FILLER_10_77
*439 FILLER_10_88
*440 FILLER_10_92
*441 FILLER_11_103
*442 FILLER_11_105
*443 FILLER_11_128
*444 FILLER_11_131
*445 FILLER_11_152
*446 FILLER_11_157
*447 FILLER_11_167
*448 FILLER_11_179
*449 FILLER_11_183
*450 FILLER_11_190
*451 FILLER_11_194
*452 FILLER_11_199
*453 FILLER_11_24
*454 FILLER_11_27
*455 FILLER_11_3
*456 FILLER_11_37
*457 FILLER_11_48
*458 FILLER_11_53
*459 FILLER_11_65
*460 FILLER_11_73
*461 FILLER_11_77
*462 FILLER_11_79
*463 FILLER_11_88
*464 FILLER_11_93
*465 FILLER_11_97
*466 FILLER_12_100
*467 FILLER_12_105
*468 FILLER_12_11
*469 FILLER_12_118
*470 FILLER_12_123
*471 FILLER_12_133
*472 FILLER_12_14
*473 FILLER_12_141
*474 FILLER_12_144
*475 FILLER_12_148
*476 FILLER_12_160
*477 FILLER_12_168
*478 FILLER_12_170
*479 FILLER_12_192
*480 FILLER_12_196
*481 FILLER_12_24
*482 FILLER_12_3
*483 FILLER_12_35
*484 FILLER_12_40
*485 FILLER_12_46
*486 FILLER_12_52
*487 FILLER_12_60
*488 FILLER_12_64
*489 FILLER_12_66
*490 FILLER_12_72
*491 FILLER_12_76
*492 FILLER_12_84
*493 FILLER_12_90
*494 FILLER_12_92
*495 FILLER_13_101
*496 FILLER_13_105
*497 FILLER_13_113
*498 FILLER_13_118
*499 FILLER_13_131
*500 FILLER_13_155
*501 FILLER_13_157
*502 FILLER_13_167
*503 FILLER_13_171
*504 FILLER_13_179
*505 FILLER_13_183
*506 FILLER_13_189
*507 FILLER_13_197
*508 FILLER_13_24
*509 FILLER_13_27
*510 FILLER_13_3
*511 FILLER_13_48
*512 FILLER_13_53
*513 FILLER_13_63
*514 FILLER_13_75
*515 FILLER_13_79
*516 FILLER_14_104
*517 FILLER_14_11
*518 FILLER_14_116
*519 FILLER_14_118
*520 FILLER_14_123
*521 FILLER_14_134
*522 FILLER_14_14
*523 FILLER_14_142
*524 FILLER_14_144
*525 FILLER_14_154
*526 FILLER_14_158
*527 FILLER_14_166
*528 FILLER_14_170
*529 FILLER_14_176
*530 FILLER_14_194
*531 FILLER_14_196
*532 FILLER_14_26
*533 FILLER_14_3
*534 FILLER_14_36
*535 FILLER_14_40
*536 FILLER_14_47
*537 FILLER_14_53
*538 FILLER_14_58
*539 FILLER_14_64
*540 FILLER_14_66
*541 FILLER_14_74
*542 FILLER_14_86
*543 FILLER_14_90
*544 FILLER_14_92
*545 FILLER_15_103
*546 FILLER_15_105
*547 FILLER_15_11
*548 FILLER_15_129
*549 FILLER_15_131
*550 FILLER_15_138
*551 FILLER_15_150
*552 FILLER_15_155
*553 FILLER_15_157
*554 FILLER_15_163
*555 FILLER_15_169
*556 FILLER_15_181
*557 FILLER_15_183
*558 FILLER_15_188
*559 FILLER_15_194
*560 FILLER_15_199
*561 FILLER_15_21
*562 FILLER_15_25
*563 FILLER_15_27
*564 FILLER_15_3
*565 FILLER_15_31
*566 FILLER_15_41
*567 FILLER_15_49
*568 FILLER_15_53
*569 FILLER_15_76
*570 FILLER_15_79
*571 FILLER_15_91
*572 FILLER_16_109
*573 FILLER_16_11
*574 FILLER_16_118
*575 FILLER_16_126
*576 FILLER_16_131
*577 FILLER_16_135
*578 FILLER_16_14
*579 FILLER_16_144
*580 FILLER_16_152
*581 FILLER_16_163
*582 FILLER_16_170
*583 FILLER_16_182
*584 FILLER_16_194
*585 FILLER_16_196
*586 FILLER_16_26
*587 FILLER_16_3
*588 FILLER_16_38
*589 FILLER_16_40
*590 FILLER_16_48
*591 FILLER_16_51
*592 FILLER_16_55
*593 FILLER_16_61
*594 FILLER_16_66
*595 FILLER_16_78
*596 FILLER_16_90
*597 FILLER_16_92
*598 FILLER_16_97
*599 FILLER_17_101
*600 FILLER_17_105
*601 FILLER_17_129
*602 FILLER_17_131
*603 FILLER_17_138
*604 FILLER_17_143
*605 FILLER_17_155
*606 FILLER_17_157
*607 FILLER_17_169
*608 FILLER_17_174
*609 FILLER_17_183
*610 FILLER_17_191
*611 FILLER_17_199
*612 FILLER_17_24
*613 FILLER_17_27
*614 FILLER_17_3
*615 FILLER_17_48
*616 FILLER_17_53
*617 FILLER_17_65
*618 FILLER_17_70
*619 FILLER_17_77
*620 FILLER_17_79
*621 FILLER_18_104
*622 FILLER_18_108
*623 FILLER_18_114
*624 FILLER_18_118
*625 FILLER_18_12
*626 FILLER_18_130
*627 FILLER_18_14
*628 FILLER_18_140
*629 FILLER_18_144
*630 FILLER_18_152
*631 FILLER_18_160
*632 FILLER_18_168
*633 FILLER_18_170
*634 FILLER_18_194
*635 FILLER_18_196
*636 FILLER_18_3
*637 FILLER_18_36
*638 FILLER_18_40
*639 FILLER_18_47
*640 FILLER_18_52
*641 FILLER_18_56
*642 FILLER_18_64
*643 FILLER_18_66
*644 FILLER_18_69
*645 FILLER_18_81
*646 FILLER_18_89
*647 FILLER_18_92
*648 FILLER_19_103
*649 FILLER_19_105
*650 FILLER_19_113
*651 FILLER_19_123
*652 FILLER_19_129
*653 FILLER_19_131
*654 FILLER_19_152
*655 FILLER_19_157
*656 FILLER_19_167
*657 FILLER_19_174
*658 FILLER_19_180
*659 FILLER_19_183
*660 FILLER_19_190
*661 FILLER_19_194
*662 FILLER_19_199
*663 FILLER_19_20
*664 FILLER_19_27
*665 FILLER_19_3
*666 FILLER_19_35
*667 FILLER_19_49
*668 FILLER_19_53
*669 FILLER_19_74
*670 FILLER_19_79
*671 FILLER_1_103
*672 FILLER_1_105
*673 FILLER_1_110
*674 FILLER_1_114
*675 FILLER_1_122
*676 FILLER_1_127
*677 FILLER_1_131
*678 FILLER_1_139
*679 FILLER_1_147
*680 FILLER_1_15
*681 FILLER_1_151
*682 FILLER_1_155
*683 FILLER_1_157
*684 FILLER_1_167
*685 FILLER_1_176
*686 FILLER_1_183
*687 FILLER_1_192
*688 FILLER_1_198
*689 FILLER_1_25
*690 FILLER_1_27
*691 FILLER_1_3
*692 FILLER_1_37
*693 FILLER_1_41
*694 FILLER_1_51
*695 FILLER_1_53
*696 FILLER_1_60
*697 FILLER_1_68
*698 FILLER_1_77
*699 FILLER_1_79
*700 FILLER_1_87
*701 FILLER_1_93
*702 FILLER_1_99
*703 FILLER_20_11
*704 FILLER_20_113
*705 FILLER_20_118
*706 FILLER_20_126
*707 FILLER_20_138
*708 FILLER_20_14
*709 FILLER_20_142
*710 FILLER_20_144
*711 FILLER_20_168
*712 FILLER_20_170
*713 FILLER_20_194
*714 FILLER_20_196
*715 FILLER_20_27
*716 FILLER_20_3
*717 FILLER_20_40
*718 FILLER_20_46
*719 FILLER_20_55
*720 FILLER_20_64
*721 FILLER_20_66
*722 FILLER_20_73
*723 FILLER_20_84
*724 FILLER_20_88
*725 FILLER_20_92
*726 FILLER_21_103
*727 FILLER_21_105
*728 FILLER_21_116
*729 FILLER_21_125
*730 FILLER_21_129
*731 FILLER_21_131
*732 FILLER_21_139
*733 FILLER_21_152
*734 FILLER_21_157
*735 FILLER_21_160
*736 FILLER_21_166
*737 FILLER_21_173
*738 FILLER_21_179
*739 FILLER_21_183
*740 FILLER_21_186
*741 FILLER_21_198
*742 FILLER_21_25
*743 FILLER_21_27
*744 FILLER_21_3
*745 FILLER_21_33
*746 FILLER_21_39
*747 FILLER_21_51
*748 FILLER_21_53
*749 FILLER_21_74
*750 FILLER_21_79
*751 FILLER_22_11
*752 FILLER_22_113
*753 FILLER_22_118
*754 FILLER_22_14
*755 FILLER_22_140
*756 FILLER_22_144
*757 FILLER_22_150
*758 FILLER_22_168
*759 FILLER_22_170
*760 FILLER_22_194
*761 FILLER_22_196
*762 FILLER_22_26
*763 FILLER_22_3
*764 FILLER_22_38
*765 FILLER_22_40
*766 FILLER_22_46
*767 FILLER_22_53
*768 FILLER_22_61
*769 FILLER_22_66
*770 FILLER_22_80
*771 FILLER_22_86
*772 FILLER_22_90
*773 FILLER_22_92
*774 FILLER_23_103
*775 FILLER_23_105
*776 FILLER_23_129
*777 FILLER_23_131
*778 FILLER_23_15
*779 FILLER_23_155
*780 FILLER_23_157
*781 FILLER_23_165
*782 FILLER_23_170
*783 FILLER_23_174
*784 FILLER_23_178
*785 FILLER_23_183
*786 FILLER_23_195
*787 FILLER_23_199
*788 FILLER_23_23
*789 FILLER_23_27
*790 FILLER_23_3
*791 FILLER_23_51
*792 FILLER_23_53
*793 FILLER_23_61
*794 FILLER_23_68
*795 FILLER_23_77
*796 FILLER_23_79
*797 FILLER_24_11
*798 FILLER_24_113
*799 FILLER_24_118
*800 FILLER_24_129
*801 FILLER_24_14
*802 FILLER_24_141
*803 FILLER_24_144
*804 FILLER_24_157
*805 FILLER_24_165
*806 FILLER_24_170
*807 FILLER_24_177
*808 FILLER_24_183
*809 FILLER_24_189
*810 FILLER_24_194
*811 FILLER_24_196
*812 FILLER_24_199
*813 FILLER_24_29
*814 FILLER_24_3
*815 FILLER_24_37
*816 FILLER_24_40
*817 FILLER_24_52
*818 FILLER_24_60
*819 FILLER_24_64
*820 FILLER_24_66
*821 FILLER_24_77
*822 FILLER_24_85
*823 FILLER_24_89
*824 FILLER_24_92
*825 FILLER_25_103
*826 FILLER_25_105
*827 FILLER_25_115
*828 FILLER_25_119
*829 FILLER_25_123
*830 FILLER_25_129
*831 FILLER_25_131
*832 FILLER_25_153
*833 FILLER_25_157
*834 FILLER_25_163
*835 FILLER_25_174
*836 FILLER_25_183
*837 FILLER_25_190
*838 FILLER_25_197
*839 FILLER_25_25
*840 FILLER_25_27
*841 FILLER_25_3
*842 FILLER_25_42
*843 FILLER_25_50
*844 FILLER_25_53
*845 FILLER_25_77
*846 FILLER_25_79
*847 FILLER_26_11
*848 FILLER_26_116
*849 FILLER_26_118
*850 FILLER_26_14
*851 FILLER_26_140
*852 FILLER_26_144
*853 FILLER_26_161
*854 FILLER_26_170
*855 FILLER_26_180
*856 FILLER_26_186
*857 FILLER_26_190
*858 FILLER_26_194
*859 FILLER_26_196
*860 FILLER_26_24
*861 FILLER_26_3
*862 FILLER_26_30
*863 FILLER_26_34
*864 FILLER_26_38
*865 FILLER_26_40
*866 FILLER_26_51
*867 FILLER_26_57
*868 FILLER_26_62
*869 FILLER_26_66
*870 FILLER_26_69
*871 FILLER_26_77
*872 FILLER_26_89
*873 FILLER_26_92
*874 FILLER_27_103
*875 FILLER_27_105
*876 FILLER_27_129
*877 FILLER_27_131
*878 FILLER_27_152
*879 FILLER_27_157
*880 FILLER_27_167
*881 FILLER_27_175
*882 FILLER_27_180
*883 FILLER_27_183
*884 FILLER_27_187
*885 FILLER_27_191
*886 FILLER_27_199
*887 FILLER_27_24
*888 FILLER_27_27
*889 FILLER_27_3
*890 FILLER_27_39
*891 FILLER_27_51
*892 FILLER_27_53
*893 FILLER_27_77
*894 FILLER_27_79
*895 FILLER_28_11
*896 FILLER_28_113
*897 FILLER_28_118
*898 FILLER_28_139
*899 FILLER_28_14
*900 FILLER_28_144
*901 FILLER_28_165
*902 FILLER_28_170
*903 FILLER_28_175
*904 FILLER_28_181
*905 FILLER_28_191
*906 FILLER_28_196
*907 FILLER_28_199
*908 FILLER_28_24
*909 FILLER_28_3
*910 FILLER_28_34
*911 FILLER_28_38
*912 FILLER_28_40
*913 FILLER_28_64
*914 FILLER_28_66
*915 FILLER_28_87
*916 FILLER_28_92
*917 FILLER_29_103
*918 FILLER_29_105
*919 FILLER_29_129
*920 FILLER_29_131
*921 FILLER_29_152
*922 FILLER_29_157
*923 FILLER_29_178
*924 FILLER_29_183
*925 FILLER_29_194
*926 FILLER_29_199
*927 FILLER_29_20
*928 FILLER_29_27
*929 FILLER_29_3
*930 FILLER_29_33
*931 FILLER_29_51
*932 FILLER_29_53
*933 FILLER_29_75
*934 FILLER_29_79
*935 FILLER_2_105
*936 FILLER_2_11
*937 FILLER_2_118
*938 FILLER_2_128
*939 FILLER_2_139
*940 FILLER_2_14
*941 FILLER_2_144
*942 FILLER_2_152
*943 FILLER_2_168
*944 FILLER_2_17
*945 FILLER_2_170
*946 FILLER_2_180
*947 FILLER_2_194
*948 FILLER_2_196
*949 FILLER_2_199
*950 FILLER_2_3
*951 FILLER_2_38
*952 FILLER_2_40
*953 FILLER_2_43
*954 FILLER_2_55
*955 FILLER_2_63
*956 FILLER_2_66
*957 FILLER_2_82
*958 FILLER_2_90
*959 FILLER_2_92
*960 FILLER_30_11
*961 FILLER_30_114
*962 FILLER_30_118
*963 FILLER_30_139
*964 FILLER_30_14
*965 FILLER_30_144
*966 FILLER_30_168
*967 FILLER_30_170
*968 FILLER_30_194
*969 FILLER_30_196
*970 FILLER_30_21
*971 FILLER_30_29
*972 FILLER_30_3
*973 FILLER_30_35
*974 FILLER_30_38
*975 FILLER_30_40
*976 FILLER_30_62
*977 FILLER_30_66
*978 FILLER_30_90
*979 FILLER_30_92
*980 FILLER_31_103
*981 FILLER_31_105
*982 FILLER_31_127
*983 FILLER_31_131
*984 FILLER_31_152
*985 FILLER_31_157
*986 FILLER_31_179
*987 FILLER_31_183
*988 FILLER_31_193
*989 FILLER_31_199
*990 FILLER_31_25
*991 FILLER_31_27
*992 FILLER_31_3
*993 FILLER_31_48
*994 FILLER_31_53
*995 FILLER_31_74
*996 FILLER_31_79
*997 FILLER_32_103
*998 FILLER_32_105
*999 FILLER_32_115
*1000 FILLER_32_118
*1001 FILLER_32_12
*1002 FILLER_32_125
*1003 FILLER_32_129
*1004 FILLER_32_131
*1005 FILLER_32_136
*1006 FILLER_32_14
*1007 FILLER_32_142
*1008 FILLER_32_144
*1009 FILLER_32_157
*1010 FILLER_32_170
*1011 FILLER_32_183
*1012 FILLER_32_194
*1013 FILLER_32_196
*1014 FILLER_32_199
*1015 FILLER_32_20
*1016 FILLER_32_25
*1017 FILLER_32_27
*1018 FILLER_32_3
*1019 FILLER_32_32
*1020 FILLER_32_38
*1021 FILLER_32_40
*1022 FILLER_32_51
*1023 FILLER_32_53
*1024 FILLER_32_64
*1025 FILLER_32_66
*1026 FILLER_32_75
*1027 FILLER_32_79
*1028 FILLER_32_83
*1029 FILLER_32_9
*1030 FILLER_32_90
*1031 FILLER_32_92
*1032 FILLER_3_105
*1033 FILLER_3_117
*1034 FILLER_3_129
*1035 FILLER_3_13
*1036 FILLER_3_131
*1037 FILLER_3_139
*1038 FILLER_3_145
*1039 FILLER_3_150
*1040 FILLER_3_154
*1041 FILLER_3_157
*1042 FILLER_3_172
*1043 FILLER_3_178
*1044 FILLER_3_181
*1045 FILLER_3_183
*1046 FILLER_3_194
*1047 FILLER_3_24
*1048 FILLER_3_27
*1049 FILLER_3_3
*1050 FILLER_3_30
*1051 FILLER_3_42
*1052 FILLER_3_50
*1053 FILLER_3_53
*1054 FILLER_3_65
*1055 FILLER_3_77
*1056 FILLER_3_79
*1057 FILLER_3_85
*1058 FILLER_3_96
*1059 FILLER_4_102
*1060 FILLER_4_116
*1061 FILLER_4_118
*1062 FILLER_4_125
*1063 FILLER_4_14
*1064 FILLER_4_142
*1065 FILLER_4_144
*1066 FILLER_4_156
*1067 FILLER_4_168
*1068 FILLER_4_170
*1069 FILLER_4_178
*1070 FILLER_4_182
*1071 FILLER_4_193
*1072 FILLER_4_196
*1073 FILLER_4_199
*1074 FILLER_4_26
*1075 FILLER_4_3
*1076 FILLER_4_38
*1077 FILLER_4_40
*1078 FILLER_4_61
*1079 FILLER_4_66
*1080 FILLER_4_71
*1081 FILLER_4_82
*1082 FILLER_4_9
*1083 FILLER_4_90
*1084 FILLER_4_92
*1085 FILLER_5_105
*1086 FILLER_5_117
*1087 FILLER_5_124
*1088 FILLER_5_131
*1089 FILLER_5_143
*1090 FILLER_5_154
*1091 FILLER_5_157
*1092 FILLER_5_160
*1093 FILLER_5_172
*1094 FILLER_5_179
*1095 FILLER_5_183
*1096 FILLER_5_191
*1097 FILLER_5_195
*1098 FILLER_5_199
*1099 FILLER_5_22
*1100 FILLER_5_27
*1101 FILLER_5_3
*1102 FILLER_5_31
*1103 FILLER_5_37
*1104 FILLER_5_42
*1105 FILLER_5_50
*1106 FILLER_5_53
*1107 FILLER_5_57
*1108 FILLER_5_63
*1109 FILLER_5_66
*1110 FILLER_5_77
*1111 FILLER_5_79
*1112 FILLER_5_87
*1113 FILLER_5_92
*1114 FILLER_6_10
*1115 FILLER_6_102
*1116 FILLER_6_114
*1117 FILLER_6_118
*1118 FILLER_6_128
*1119 FILLER_6_14
*1120 FILLER_6_140
*1121 FILLER_6_144
*1122 FILLER_6_152
*1123 FILLER_6_159
*1124 FILLER_6_167
*1125 FILLER_6_170
*1126 FILLER_6_180
*1127 FILLER_6_190
*1128 FILLER_6_194
*1129 FILLER_6_196
*1130 FILLER_6_26
*1131 FILLER_6_3
*1132 FILLER_6_38
*1133 FILLER_6_40
*1134 FILLER_6_44
*1135 FILLER_6_51
*1136 FILLER_6_63
*1137 FILLER_6_66
*1138 FILLER_6_78
*1139 FILLER_6_90
*1140 FILLER_6_92
*1141 FILLER_7_103
*1142 FILLER_7_105
*1143 FILLER_7_127
*1144 FILLER_7_131
*1145 FILLER_7_152
*1146 FILLER_7_157
*1147 FILLER_7_162
*1148 FILLER_7_170
*1149 FILLER_7_173
*1150 FILLER_7_181
*1151 FILLER_7_183
*1152 FILLER_7_195
*1153 FILLER_7_199
*1154 FILLER_7_24
*1155 FILLER_7_27
*1156 FILLER_7_3
*1157 FILLER_7_31
*1158 FILLER_7_38
*1159 FILLER_7_46
*1160 FILLER_7_51
*1161 FILLER_7_53
*1162 FILLER_7_65
*1163 FILLER_7_73
*1164 FILLER_7_77
*1165 FILLER_7_79
*1166 FILLER_7_91
*1167 FILLER_8_104
*1168 FILLER_8_11
*1169 FILLER_8_112
*1170 FILLER_8_116
*1171 FILLER_8_118
*1172 FILLER_8_128
*1173 FILLER_8_132
*1174 FILLER_8_136
*1175 FILLER_8_14
*1176 FILLER_8_142
*1177 FILLER_8_144
*1178 FILLER_8_168
*1179 FILLER_8_170
*1180 FILLER_8_194
*1181 FILLER_8_196
*1182 FILLER_8_3
*1183 FILLER_8_37
*1184 FILLER_8_40
*1185 FILLER_8_64
*1186 FILLER_8_66
*1187 FILLER_8_90
*1188 FILLER_8_92
*1189 FILLER_9_103
*1190 FILLER_9_105
*1191 FILLER_9_127
*1192 FILLER_9_131
*1193 FILLER_9_134
*1194 FILLER_9_145
*1195 FILLER_9_15
*1196 FILLER_9_152
*1197 FILLER_9_157
*1198 FILLER_9_163
*1199 FILLER_9_167
*1200 FILLER_9_181
*1201 FILLER_9_183
*1202 FILLER_9_191
*1203 FILLER_9_195
*1204 FILLER_9_199
*1205 FILLER_9_22
*1206 FILLER_9_27
*1207 FILLER_9_3
*1208 FILLER_9_39
*1209 FILLER_9_45
*1210 FILLER_9_51
*1211 FILLER_9_53
*1212 FILLER_9_58
*1213 FILLER_9_64
*1214 FILLER_9_69
*1215 FILLER_9_77
*1216 FILLER_9_79
*1217 PHY_0
*1218 PHY_1
*1219 PHY_10
*1220 PHY_11
*1221 PHY_12
*1222 PHY_13
*1223 PHY_14
*1224 PHY_15
*1225 PHY_16
*1226 PHY_17
*1227 PHY_18
*1228 PHY_19
*1229 PHY_2
*1230 PHY_20
*1231 PHY_21
*1232 PHY_22
*1233 PHY_23
*1234 PHY_24
*1235 PHY_25
*1236 PHY_26
*1237 PHY_27
*1238 PHY_28
*1239 PHY_29
*1240 PHY_3
*1241 PHY_30
*1242 PHY_31
*1243 PHY_32
*1244 PHY_33
*1245 PHY_34
*1246 PHY_35
*1247 PHY_36
*1248 PHY_37
*1249 PHY_38
*1250 PHY_39
*1251 PHY_4
*1252 PHY_40
*1253 PHY_41
*1254 PHY_42
*1255 PHY_43
*1256 PHY_44
*1257 PHY_45
*1258 PHY_46
*1259 PHY_47
*1260 PHY_48
*1261 PHY_49
*1262 PHY_5
*1263 PHY_50
*1264 PHY_51
*1265 PHY_52
*1266 PHY_53
*1267 PHY_54
*1268 PHY_55
*1269 PHY_56
*1270 PHY_57
*1271 PHY_58
*1272 PHY_59
*1273 PHY_6
*1274 PHY_60
*1275 PHY_61
*1276 PHY_62
*1277 PHY_63
*1278 PHY_64
*1279 PHY_65
*1280 PHY_7
*1281 PHY_8
*1282 PHY_9
*1283 TAP_100
*1284 TAP_101
*1285 TAP_102
*1286 TAP_103
*1287 TAP_104
*1288 TAP_105
*1289 TAP_106
*1290 TAP_107
*1291 TAP_108
*1292 TAP_109
*1293 TAP_110
*1294 TAP_111
*1295 TAP_112
*1296 TAP_113
*1297 TAP_114
*1298 TAP_115
*1299 TAP_116
*1300 TAP_117
*1301 TAP_118
*1302 TAP_119
*1303 TAP_120
*1304 TAP_121
*1305 TAP_122
*1306 TAP_123
*1307 TAP_124
*1308 TAP_125
*1309 TAP_126
*1310 TAP_127
*1311 TAP_128
*1312 TAP_129
*1313 TAP_130
*1314 TAP_131
*1315 TAP_132
*1316 TAP_133
*1317 TAP_134
*1318 TAP_135
*1319 TAP_136
*1320 TAP_137
*1321 TAP_138
*1322 TAP_139
*1323 TAP_140
*1324 TAP_141
*1325 TAP_142
*1326 TAP_143
*1327 TAP_144
*1328 TAP_145
*1329 TAP_146
*1330 TAP_147
*1331 TAP_148
*1332 TAP_149
*1333 TAP_150
*1334 TAP_151
*1335 TAP_152
*1336 TAP_153
*1337 TAP_154
*1338 TAP_155
*1339 TAP_156
*1340 TAP_157
*1341 TAP_158
*1342 TAP_159
*1343 TAP_160
*1344 TAP_161
*1345 TAP_162
*1346 TAP_163
*1347 TAP_164
*1348 TAP_165
*1349 TAP_166
*1350 TAP_167
*1351 TAP_168
*1352 TAP_169
*1353 TAP_170
*1354 TAP_171
*1355 TAP_172
*1356 TAP_173
*1357 TAP_174
*1358 TAP_175
*1359 TAP_176
*1360 TAP_177
*1361 TAP_178
*1362 TAP_179
*1363 TAP_180
*1364 TAP_181
*1365 TAP_182
*1366 TAP_183
*1367 TAP_184
*1368 TAP_185
*1369 TAP_186
*1370 TAP_187
*1371 TAP_188
*1372 TAP_189
*1373 TAP_190
*1374 TAP_191
*1375 TAP_192
*1376 TAP_193
*1377 TAP_194
*1378 TAP_195
*1379 TAP_196
*1380 TAP_197
*1381 TAP_198
*1382 TAP_199
*1383 TAP_200
*1384 TAP_201
*1385 TAP_202
*1386 TAP_203
*1387 TAP_204
*1388 TAP_205
*1389 TAP_206
*1390 TAP_207
*1391 TAP_208
*1392 TAP_209
*1393 TAP_210
*1394 TAP_211
*1395 TAP_212
*1396 TAP_213
*1397 TAP_214
*1398 TAP_215
*1399 TAP_216
*1400 TAP_217
*1401 TAP_218
*1402 TAP_219
*1403 TAP_220
*1404 TAP_221
*1405 TAP_222
*1406 TAP_223
*1407 TAP_224
*1408 TAP_225
*1409 TAP_226
*1410 TAP_227
*1411 TAP_228
*1412 TAP_229
*1413 TAP_230
*1414 TAP_231
*1415 TAP_232
*1416 TAP_233
*1417 TAP_234
*1418 TAP_235
*1419 TAP_236
*1420 TAP_237
*1421 TAP_238
*1422 TAP_239
*1423 TAP_240
*1424 TAP_241
*1425 TAP_242
*1426 TAP_243
*1427 TAP_244
*1428 TAP_245
*1429 TAP_246
*1430 TAP_247
*1431 TAP_248
*1432 TAP_249
*1433 TAP_250
*1434 TAP_251
*1435 TAP_252
*1436 TAP_253
*1437 TAP_254
*1438 TAP_255
*1439 TAP_256
*1440 TAP_257
*1441 TAP_258
*1442 TAP_259
*1443 TAP_260
*1444 TAP_261
*1445 TAP_262
*1446 TAP_263
*1447 TAP_264
*1448 TAP_265
*1449 TAP_266
*1450 TAP_267
*1451 TAP_268
*1452 TAP_269
*1453 TAP_270
*1454 TAP_271
*1455 TAP_272
*1456 TAP_273
*1457 TAP_274
*1458 TAP_275
*1459 TAP_276
*1460 TAP_277
*1461 TAP_278
*1462 TAP_279
*1463 TAP_280
*1464 TAP_281
*1465 TAP_282
*1466 TAP_283
*1467 TAP_284
*1468 TAP_285
*1469 TAP_286
*1470 TAP_287
*1471 TAP_288
*1472 TAP_289
*1473 TAP_290
*1474 TAP_291
*1475 TAP_292
*1476 TAP_293
*1477 TAP_294
*1478 TAP_295
*1479 TAP_296
*1480 TAP_297
*1481 TAP_298
*1482 TAP_299
*1483 TAP_300
*1484 TAP_301
*1485 TAP_302
*1486 TAP_303
*1487 TAP_304
*1488 TAP_305
*1489 TAP_306
*1490 TAP_307
*1491 TAP_308
*1492 TAP_309
*1493 TAP_310
*1494 TAP_311
*1495 TAP_312
*1496 TAP_313
*1497 TAP_314
*1498 TAP_315
*1499 TAP_316
*1500 TAP_317
*1501 TAP_318
*1502 TAP_319
*1503 TAP_320
*1504 TAP_321
*1505 TAP_322
*1506 TAP_323
*1507 TAP_324
*1508 TAP_325
*1509 TAP_326
*1510 TAP_327
*1511 TAP_66
*1512 TAP_67
*1513 TAP_68
*1514 TAP_69
*1515 TAP_70
*1516 TAP_71
*1517 TAP_72
*1518 TAP_73
*1519 TAP_74
*1520 TAP_75
*1521 TAP_76
*1522 TAP_77
*1523 TAP_78
*1524 TAP_79
*1525 TAP_80
*1526 TAP_81
*1527 TAP_82
*1528 TAP_83
*1529 TAP_84
*1530 TAP_85
*1531 TAP_86
*1532 TAP_87
*1533 TAP_88
*1534 TAP_89
*1535 TAP_90
*1536 TAP_91
*1537 TAP_92
*1538 TAP_93
*1539 TAP_94
*1540 TAP_95
*1541 TAP_96
*1542 TAP_97
*1543 TAP_98
*1544 TAP_99
*1545 _202_
*1546 _203_
*1547 _204_
*1548 _205_
*1549 _206_
*1550 _207_
*1551 _208_
*1552 _209_
*1553 _210_
*1554 _211_
*1555 _212_
*1556 _213_
*1557 _214_
*1558 _215_
*1559 _216_
*1560 _217_
*1561 _218_
*1562 _219_
*1563 _220_
*1564 _221_
*1565 _222_
*1566 _223_
*1567 _224_
*1568 _225_
*1569 _226_
*1570 _227_
*1571 _228_
*1572 _229_
*1573 _230_
*1574 _231_
*1575 _232_
*1576 _233_
*1577 _234_
*1578 _235_
*1579 _236_
*1580 _237_
*1581 _238_
*1582 _239_
*1583 _240_
*1584 _241_
*1585 _242_
*1586 _243_
*1587 _244_
*1588 _245_
*1589 _246_
*1590 _247_
*1591 _248_
*1592 _249_
*1593 _250_
*1594 _251_
*1595 _252_
*1596 _253_
*1597 _254__7
*1598 _255_
*1599 _256__4
*1600 _257_
*1601 _258_
*1602 _259__1
*1603 _260_
*1604 _261_
*1605 _262_
*1606 _263_
*1607 _264_
*1608 _265_
*1609 _266_
*1610 _267_
*1611 _268_
*1612 _269_
*1613 _270_
*1614 _271_
*1615 _272_
*1616 _273_
*1617 _274_
*1618 _275_
*1619 _276_
*1620 _277_
*1621 _278_
*1622 _279_
*1623 _280_
*1624 _281_
*1625 _282_
*1626 _283_
*1627 _284_
*1628 _285_
*1629 _286_
*1630 _287_
*1631 _288_
*1632 _289_
*1633 _290_
*1634 _291_
*1635 _292_
*1636 _293_
*1637 _294_
*1638 _295_
*1639 _296_
*1640 _297_
*1641 _298_
*1642 _299_
*1643 _300_
*1644 _301_
*1645 _302_
*1646 _303_
*1647 _304_
*1648 _305_
*1649 _306_
*1650 _307_
*1651 _308_
*1652 _309_
*1653 _310_
*1654 _311_
*1655 _312_
*1656 _313_
*1657 _314_
*1658 _315_
*1659 _316_
*1660 _317_
*1661 _318_
*1662 _319_
*1663 _320_
*1664 _321_
*1665 _322_
*1666 _323_
*1667 _324_
*1668 _325_
*1669 _326_
*1670 _327_
*1671 _328_
*1672 _329_
*1673 _330_
*1674 _331_
*1675 _332_
*1676 _333_
*1677 _334_
*1678 _335_
*1679 _336_
*1680 _337_
*1681 _338_
*1682 _339_
*1683 _340_
*1684 _341_
*1685 _342_
*1686 _343_
*1687 _344_
*1688 _345_
*1689 _346_
*1690 _347_
*1691 _348_
*1692 _349_
*1693 _350_
*1694 _351_
*1695 _352_
*1696 _353_
*1697 _354_
*1698 _355_
*1699 _356_
*1700 _357_
*1701 _358_
*1702 _359_
*1703 _360_
*1704 _361_
*1705 _362_
*1706 _363_
*1707 _364_
*1708 _365_
*1709 _366_
*1710 _367_
*1711 _368_
*1712 _369_
*1713 _370_
*1714 _371_
*1715 _372_
*1716 _373_
*1717 _374_
*1718 _375_
*1719 _376_
*1720 _377_
*1721 _378_
*1722 _379_
*1723 _380_
*1724 _381_
*1725 _382_
*1726 _383_
*1727 _384_
*1728 _385_
*1729 _386_
*1730 _387_
*1731 _388_
*1732 _389_
*1733 _390_
*1734 _391_
*1735 _392_
*1736 _393_
*1737 _394_
*1738 _395_
*1739 _396_
*1740 _397_
*1741 _398_
*1742 _399_
*1743 _400_
*1744 _401_
*1745 _402_
*1746 _403__8
*1747 _404__9
*1748 _405__5
*1749 _406__6
*1750 _407__2
*1751 _408__3
*1752 _409_
*1753 _410_
*1754 _411_
*1755 _411__30
*1756 _412_
*1757 _413_
*1758 _414_
*1759 _415_
*1760 _416_
*1761 _417_
*1762 _418_
*1763 _419_
*1764 _420_
*1765 _421_
*1766 _422_
*1767 _423_
*1768 _424_
*1769 _425_
*1770 _426_
*1771 _427_
*1772 _428_
*1773 _429_
*1774 _430_
*1775 _431_
*1776 _432_
*1777 _433_
*1778 _434_
*1779 _435_
*1780 _436_
*1781 _437_
*1782 _438_
*1783 _439_
*1784 _440_
*1785 _441_
*1786 _442_
*1787 _443_
*1788 _444_
*1789 _445_
*1790 _446_
*1791 _447_
*1792 _448_
*1793 _449_
*1794 _450_
*1795 _451_
*1796 _452_
*1797 _453_
*1798 _454_
*1799 _455_
*1800 _456_
*1801 _457_
*1802 _458_
*1803 _459_
*1804 _460_
*1805 _461_
*1806 _462_
*1807 _463_
*1808 _464_
*1809 _465_
*1810 clkbuf_0__037_
*1811 clkbuf_0_divider\.out
*1812 clkbuf_0_divider2\.out
*1813 clkbuf_0_ext_clk
*1814 clkbuf_0_net10
*1815 clkbuf_0_pll_clk
*1816 clkbuf_0_pll_clk90
*1817 clkbuf_1_0__f__037_
*1818 clkbuf_1_0__f_divider\.out
*1819 clkbuf_1_0__f_divider2\.out