*SPEF "ieee 1481-1999"
*DESIGN "caravel_clocking"
*DATE "11:11:11 Fri 11 11, 1111"
*VENDOR "OpenRCX"
*PROGRAM "Parallel Extraction"
*VERSION "1.0"
*DESIGN_FLOW "NAME_SCOPE LOCAL" "PIN_CAP NONE"
*DIVIDER /
*DELIMITER :
*BUS_DELIMITER []
*T_UNIT 1 NS
*C_UNIT 1 PF
*R_UNIT 1 OHM
*L_UNIT 1 HENRY

*NAME_MAP
*3 core_clk
*4 ext_clk
*5 ext_clk_sel
*6 ext_reset
*7 pll_clk
*8 pll_clk90
*9 resetb
*10 resetb_sync
*11 sel2[0]
*12 sel2[1]
*13 sel2[2]
*14 sel[0]
*15 sel[1]
*16 sel[2]
*17 user_clk
*18 _000_
*19 _001_
*20 _002_
*21 _003_
*22 _004_
*23 _005_
*24 _006_
*25 _007_
*26 _008_
*27 _009_
*28 _010_
*29 _011_
*30 _012_
*31 _013_
*32 _014_
*33 _015_
*34 _016_
*35 _017_
*36 _018_
*37 _019_
*38 _020_
*39 _021_
*40 _022_
*41 _023_
*42 _024_
*43 _025_
*44 _026_
*45 _027_
*46 _028_
*47 _029_
*48 _030_
*49 _031_
*50 _032_
*51 _033_
*52 _034_
*53 _035_
*54 _036_
*55 _037_
*56 _038_
*57 _039_
*58 _040_
*59 _041_
*60 _042_
*61 _043_
*62 _044_
*63 _045_
*64 _046_
*65 _047_
*66 _048_
*67 _049_
*68 _050_
*69 _051_
*70 _052_
*71 _053_
*72 _054_
*73 _055_
*74 _056_
*75 _057_
*76 _058_
*77 _059_
*78 _060_
*79 _061_
*80 _062_
*81 _063_
*82 _064_
*83 _065_
*84 _066_
*85 _067_
*86 _068_
*87 _069_
*88 _070_
*89 _071_
*90 _072_
*91 _073_
*92 _074_
*93 _075_
*94 _076_
*95 _077_
*96 _078_
*97 _088_
*98 _089_
*99 _090_
*100 _091_
*101 _092_
*102 _093_
*103 _094_
*104 _095_
*105 _096_
*106 _097_
*107 _098_
*108 _099_
*109 _100_
*110 _101_
*111 _102_
*112 _103_
*113 _104_
*114 _105_
*115 _106_
*116 _107_
*117 _108_
*118 _109_
*119 _110_
*120 _111_
*121 _112_
*122 _113_
*123 _114_
*124 _115_
*125 _116_
*126 _117_
*127 _118_
*128 _119_
*129 _120_
*130 _121_
*131 _122_
*132 _123_
*133 _124_
*134 _125_
*135 _126_
*136 _127_
*137 _128_
*138 _129_
*139 _130_
*140 _131_
*141 _132_
*142 _133_
*143 _134_
*144 _135_
*145 _136_
*146 _137_
*147 _138_
*148 _139_
*149 _140_
*150 _141_
*151 _142_
*152 _143_
*153 _144_
*154 _145_
*155 _146_
*156 _147_
*157 _148_
*158 _149_
*159 _150_
*160 _151_
*161 _152_
*162 _153_
*163 _154_
*164 _155_
*165 _156_
*166 _157_
*167 _158_
*168 _159_
*169 _160_
*170 _161_
*171 _162_
*172 _163_
*173 _164_
*174 _165_
*175 _166_
*176 _167_
*177 _168_
*178 _169_
*179 _170_
*180 _171_
*181 _172_
*182 _173_
*183 _174_
*184 _175_
*185 _176_
*186 _177_
*187 _178_
*188 _179_
*189 _180_
*190 _181_
*191 _182_
*192 _183_
*193 _184_
*194 _185_
*195 _186_
*196 _187_
*197 _188_
*198 _189_
*199 _190_
*200 _191_
*201 _192_
*202 _193_
*203 _194_
*204 _195_
*205 _196_
*206 _197_
*207 _198_
*208 _199_
*209 _200_
*210 _201_
*211 _202_
*212 _203_
*213 _204_
*214 clknet_0__037_
*215 clknet_0_divider\.out
*216 clknet_0_divider2\.out
*217 clknet_0_ext_clk
*218 clknet_0_net10
*219 clknet_0_pll_clk
*220 clknet_0_pll_clk90
*221 clknet_1_0__leaf__037_
*222 clknet_1_0__leaf_divider\.out
*223 clknet_1_0__leaf_divider2\.out
*224 clknet_1_0__leaf_ext_clk
*225 clknet_1_0__leaf_pll_clk
*226 clknet_1_0__leaf_pll_clk90
*227 clknet_1_1__leaf__037_
*228 clknet_1_1__leaf_divider\.out
*229 clknet_1_1__leaf_divider2\.out
*230 clknet_1_1__leaf_ext_clk
*231 clknet_1_1__leaf_net10
*232 clknet_1_1__leaf_pll_clk
*233 clknet_1_1__leaf_pll_clk90
*234 divider\.even_0\.N\[0\]
*235 divider\.even_0\.N\[1\]
*236 divider\.even_0\.N\[2\]
*237 divider\.even_0\.counter\[0\]
*238 divider\.even_0\.counter\[1\]
*239 divider\.even_0\.counter\[2\]
*240 divider\.even_0\.out_counter
*241 divider\.odd_0\.counter2\[0\]
*242 divider\.odd_0\.counter2\[1\]
*243 divider\.odd_0\.counter2\[2\]
*244 divider\.odd_0\.counter\[0\]
*245 divider\.odd_0\.counter\[1\]
*246 divider\.odd_0\.counter\[2\]
*247 divider\.odd_0\.initial_begin\[0\]
*248 divider\.odd_0\.initial_begin\[1\]
*249 divider\.odd_0\.initial_begin\[2\]
*250 divider\.odd_0\.old_N\[0\]
*251 divider\.odd_0\.old_N\[1\]
*252 divider\.odd_0\.old_N\[2\]
*253 divider\.odd_0\.out_counter
*254 divider\.odd_0\.out_counter2
*255 divider\.odd_0\.rst_pulse
*256 divider\.out
*257 divider\.syncNp\[0\]
*258 divider\.syncNp\[1\]
*259 divider\.syncNp\[2\]
*260 divider2\.even_0\.N\[0\]
*261 divider2\.even_0\.N\[1\]
*262 divider2\.even_0\.N\[2\]
*263 divider2\.even_0\.counter\[0\]
*264 divider2\.even_0\.counter\[1\]
*265 divider2\.even_0\.counter\[2\]
*266 divider2\.even_0\.out_counter
*267 divider2\.odd_0\.counter2\[0\]
*268 divider2\.odd_0\.counter2\[1\]
*269 divider2\.odd_0\.counter2\[2\]
*270 divider2\.odd_0\.counter\[0\]
*271 divider2\.odd_0\.counter\[1\]
*272 divider2\.odd_0\.counter\[2\]
*273 divider2\.odd_0\.initial_begin\[0\]
*274 divider2\.odd_0\.initial_begin\[1\]
*275 divider2\.odd_0\.initial_begin\[2\]
*276 divider2\.odd_0\.old_N\[0\]
*277 divider2\.odd_0\.old_N\[1\]
*278 divider2\.odd_0\.old_N\[2\]
*279 divider2\.odd_0\.out_counter
*280 divider2\.odd_0\.out_counter2
*281 divider2\.odd_0\.rst_pulse
*282 divider2\.out
*283 divider2\.syncNp\[0\]
*284 divider2\.syncNp\[1\]
*285 divider2\.syncNp\[2\]
*286 ext_clk_syncd
*287 ext_clk_syncd_pre
*288 net1
*289 net10
*290 net11
*291 net13
*292 net14
*293 net15
*294 net16
*295 net17
*296 net18
*297 net19
*298 net2
*299 net20
*300 net21
*301 net22
*302 net23
*303 net24
*304 net25
*305 net26
*306 net27
*307 net28
*308 net29
*309 net3
*310 net30
*311 net31
*312 net32
*313 net33
*314 net34
*315 net35
*316 net36
*317 net37
*318 net38
*319 net39
*320 net4
*321 net5
*322 net6
*323 net7
*324 net8
*325 net9
*326 pll_clk_sel
*327 reset_delay\[0\]
*328 reset_delay\[1\]
*329 reset_delay\[2\]
*330 use_pll_first
*331 use_pll_second
*332 user_clk_buffered
*333 ANTENNA__233__A1
*334 ANTENNA__234__A1
*335 ANTENNA__234__S
*336 ANTENNA__235__A1
*337 ANTENNA__236__A1
*338 ANTENNA__236__S
*339 ANTENNA__237__A1
*340 ANTENNA__238__A1
*341 ANTENNA__240__S
*342 ANTENNA__241__A1
*343 ANTENNA__242__A1
*344 ANTENNA__242__S
*345 ANTENNA__243__A1
*346 ANTENNA__244__A1
*347 ANTENNA__245__A0
*348 ANTENNA__246__A0
*349 ANTENNA__275__A
*350 ANTENNA__275__B
*351 ANTENNA__276__A1
*352 ANTENNA__276__B1
*353 ANTENNA__277__A1
*354 ANTENNA__277__A2
*355 ANTENNA__277__B1
*356 ANTENNA__280__A1
*357 ANTENNA__280__A2
*358 ANTENNA__280__B1
*359 ANTENNA__281__A2
*360 ANTENNA__283__A1
*361 ANTENNA__306__B
*362 ANTENNA__313__A_N
*363 ANTENNA__316__A2
*364 ANTENNA__333__A
*365 ANTENNA__333__B
*366 ANTENNA__335__A
*367 ANTENNA__335__B
*368 ANTENNA__335__C
*369 ANTENNA__336__A1
*370 ANTENNA__336__A2
*371 ANTENNA__336__B1
*372 ANTENNA__351__B1
*373 ANTENNA__381__A1
*374 ANTENNA__387__A_N
*375 ANTENNA__388__A
*376 ANTENNA__390__A1
*377 ANTENNA__390__A2
*378 ANTENNA__397__A1
*379 ANTENNA__397__A2
*380 ANTENNA__398__A1
*381 ANTENNA__398__A3
*382 ANTENNA__399__A1
*383 ANTENNA__399__A2
*384 ANTENNA__400__A1
*385 ANTENNA__400__A3
*386 ANTENNA__401__A2
*387 ANTENNA__402__A1
*388 ANTENNA__402__A3
*389 ANTENNA__408__A
*390 ANTENNA__409__A1
*391 ANTENNA__417__SET_B
*392 ANTENNA__421__RESET_B
*393 ANTENNA__422__SET_B
*394 ANTENNA__437__SET_B
*395 ANTENNA__438__RESET_B
*396 ANTENNA__450__D
*397 ANTENNA__452__SET_B
*398 ANTENNA__453__RESET_B
*399 ANTENNA__457__SET_B
*400 ANTENNA__461__RESET_B
*401 ANTENNA__463__RESET_B
*402 ANTENNA__465__SET_B
*403 ANTENNA__466__RESET_B
*404 ANTENNA__467__RESET_B
*405 ANTENNA__468__RESET_B
*406 ANTENNA__469__SET_B
*407 ANTENNA__470__RESET_B
*408 ANTENNA__471__RESET_B
*409 ANTENNA__472__SET_B
*410 ANTENNA__473__RESET_B
*411 ANTENNA_clkbuf_0_ext_clk_A
*412 ANTENNA_clkbuf_0_pll_clk90_A
*413 ANTENNA_clkbuf_0_pll_clk_A
*414 ANTENNA_fanout21_A
*415 ANTENNA_fanout27_A
*416 ANTENNA_fanout28_A
*417 ANTENNA_input1_A
*418 ANTENNA_input2_A
*419 ANTENNA_input3_A
*420 ANTENNA_input4_A
*421 ANTENNA_input5_A
*422 ANTENNA_input6_A
*423 ANTENNA_input7_A
*424 ANTENNA_input8_A
*425 ANTENNA_input9_A
*426 FILLER_0_11
*427 FILLER_0_110
*428 FILLER_0_116
*429 FILLER_0_118
*430 FILLER_0_126
*431 FILLER_0_14
*432 FILLER_0_144
*433 FILLER_0_179
*434 FILLER_0_185
*435 FILLER_0_196
*436 FILLER_0_27
*437 FILLER_0_3
*438 FILLER_0_40
*439 FILLER_0_53
*440 FILLER_0_66
*441 FILLER_0_70
*442 FILLER_0_88
*443 FILLER_0_96
*444 FILLER_10_148
*445 FILLER_10_199
*446 FILLER_10_35
*447 FILLER_10_55
*448 FILLER_10_70
*449 FILLER_11_129
*450 FILLER_11_199
*451 FILLER_11_3
*452 FILLER_11_49
*453 FILLER_11_75
*454 FILLER_11_79
*455 FILLER_12_138
*456 FILLER_12_196
*457 FILLER_12_54
*458 FILLER_13_103
*459 FILLER_13_125
*460 FILLER_13_195
*461 FILLER_13_199
*462 FILLER_13_79
*463 FILLER_14_142
*464 FILLER_15_199
*465 FILLER_15_3
*466 FILLER_15_75
*467 FILLER_16_120
*468 FILLER_16_142
*469 FILLER_16_44
*470 FILLER_17_199
*471 FILLER_17_53
*472 FILLER_18_116
*473 FILLER_18_155
*474 FILLER_18_168
*475 FILLER_18_199
*476 FILLER_18_40
*477 FILLER_18_53
*478 FILLER_18_88
*479 FILLER_18_92
*480 FILLER_1_124
*481 FILLER_1_135
*482 FILLER_1_15
*483 FILLER_1_157
*484 FILLER_1_185
*485 FILLER_1_23
*486 FILLER_1_27
*487 FILLER_1_3
*488 FILLER_1_50
*489 FILLER_1_56
*490 FILLER_1_69
*491 FILLER_1_77
*492 FILLER_1_83
*493 FILLER_1_95
*494 FILLER_1_99
*495 FILLER_2_11
*496 FILLER_2_133
*497 FILLER_2_14
*498 FILLER_2_196
*499 FILLER_2_26
*500 FILLER_2_3
*501 FILLER_2_35
*502 FILLER_2_40
*503 FILLER_2_90
*504 FILLER_2_92
*505 FILLER_3_103
*506 FILLER_3_125
*507 FILLER_3_15
*508 FILLER_3_155
*509 FILLER_3_159
*510 FILLER_3_199
*511 FILLER_3_24
*512 FILLER_3_27
*513 FILLER_3_3
*514 FILLER_3_45
*515 FILLER_3_56
*516 FILLER_4_11
*517 FILLER_4_120
*518 FILLER_4_14
*519 FILLER_4_142
*520 FILLER_4_196
*521 FILLER_4_3
*522 FILLER_4_92
*523 FILLER_5_15
*524 FILLER_5_175
*525 FILLER_5_3
*526 FILLER_5_53
*527 FILLER_5_88
*528 FILLER_6_11
*529 FILLER_6_116
*530 FILLER_6_121
*531 FILLER_6_14
*532 FILLER_6_18
*533 FILLER_6_3
*534 FILLER_6_40
*535 FILLER_7_15
*536 FILLER_7_181
*537 FILLER_7_183
*538 FILLER_7_23
*539 FILLER_7_27
*540 FILLER_7_3
*541 FILLER_8_11
*542 FILLER_8_168
*543 FILLER_8_3
*544 FILLER_8_34
*545 FILLER_8_64
*546 FILLER_8_66
*547 FILLER_9_103
*548 FILLER_9_155
*549 FILLER_9_199
*550 FILLER_9_29
*551 FILLER_9_3
*552 FILLER_9_47
*553 FILLER_9_79
*554 PHY_0
*555 PHY_1
*556 PHY_10
*557 PHY_11
*558 PHY_12
*559 PHY_13
*560 PHY_14
*561 PHY_15
*562 PHY_16
*563 PHY_17
*564 PHY_18
*565 PHY_19
*566 PHY_2
*567 PHY_20
*568 PHY_21
*569 PHY_22
*570 PHY_23
*571 PHY_24
*572 PHY_25
*573 PHY_26
*574 PHY_27
*575 PHY_28
*576 PHY_29
*577 PHY_3
*578 PHY_30
*579 PHY_31
*580 PHY_32
*581 PHY_33
*582 PHY_34
*583 PHY_35
*584 PHY_36
*585 PHY_37
*586 PHY_4
*587 PHY_5
*588 PHY_6
*589 PHY_7
*590 PHY_8
*591 PHY_9
*592 TAP_100
*593 TAP_101
*594 TAP_102
*595 TAP_103
*596 TAP_104
*597 TAP_105
*598 TAP_106
*599 TAP_107
*600 TAP_108
*601 TAP_109
*602 TAP_110
*603 TAP_111
*604 TAP_112
*605 TAP_113
*606 TAP_114
*607 TAP_115
*608 TAP_116
*609 TAP_117
*610 TAP_118
*611 TAP_119
*612 TAP_120
*613 TAP_121
*614 TAP_122
*615 TAP_123
*616 TAP_124
*617 TAP_125
*618 TAP_126
*619 TAP_127
*620 TAP_128
*621 TAP_129
*622 TAP_130
*623 TAP_131
*624 TAP_132
*625 TAP_133
*626 TAP_134
*627 TAP_135
*628 TAP_136
*629 TAP_137
*630 TAP_138
*631 TAP_139
*632 TAP_140
*633 TAP_141
*634 TAP_142
*635 TAP_143
*636 TAP_144
*637 TAP_145
*638 TAP_146
*639 TAP_147
*640 TAP_148
*641 TAP_149
*642 TAP_150
*643 TAP_151
*644 TAP_152
*645 TAP_153
*646 TAP_154
*647 TAP_155
*648 TAP_156
*649 TAP_157
*650 TAP_158
*651 TAP_159
*652 TAP_160
*653 TAP_161
*654 TAP_162
*655 TAP_163
*656 TAP_164
*657 TAP_165
*658 TAP_166
*659 TAP_167
*660 TAP_168
*661 TAP_169
*662 TAP_170
*663 TAP_171
*664 TAP_172
*665 TAP_173
*666 TAP_174
*667 TAP_175
*668 TAP_176
*669 TAP_177
*670 TAP_178
*671 TAP_179
*672 TAP_180
*673 TAP_181
*674 TAP_182
*675 TAP_183
*676 TAP_184
*677 TAP_185
*678 TAP_186
*679 TAP_187
*680 TAP_188
*681 TAP_189
*682 TAP_190
*683 TAP_191
*684 TAP_192
*685 TAP_193
*686 TAP_194
*687 TAP_38
*688 TAP_39
*689 TAP_40
*690 TAP_41
*691 TAP_42
*692 TAP_43
*693 TAP_44
*694 TAP_45
*695 TAP_46
*696 TAP_47
*697 TAP_48
*698 TAP_49
*699 TAP_50
*700 TAP_51
*701 TAP_52
*702 TAP_53
*703 TAP_54
*704 TAP_55
*705 TAP_56
*706 TAP_57
*707 TAP_58
*708 TAP_59
*709 TAP_60
*710 TAP_61
*711 TAP_62
*712 TAP_63
*713 TAP_64
*714 TAP_65
*715 TAP_66
*716 TAP_67
*717 TAP_68
*718 TAP_69
*719 TAP_70
*720 TAP_71
*721 TAP_72
*722 TAP_73
*723 TAP_74
*724 TAP_75
*725 TAP_76
*726 TAP_77
*727 TAP_78
*728 TAP_79
*729 TAP_80
*730 TAP_81
*731 TAP_82
*732 TAP_83
*733 TAP_84
*734 TAP_85
*735 TAP_86
*736 TAP_87
*737 TAP_88
*738 TAP_89
*739 TAP_90
*740 TAP_91
*741 TAP_92
*742 TAP_93
*743 TAP_94
*744 TAP_95
*745 TAP_96
*746 TAP_97
*747 TAP_98
*748 TAP_99
*749 _206_
*750 _207_
*751 _208_
*752 _209_
*753 _210_
*754 _211_
*755 _212_
*756 _213_
*757 _214_
*758 _215_
*759 _216_
*760 _217_
*761 _218_
*762 _219_
*763 _220_
*764 _221_
*765 _222_
*766 _223_
*767 _224_
*768 _225_
*769 _226_
*770 _227_
*771 _228_
*772 _229_
*773 _230_
*774 _231_
*775 _232_
*776 _233_
*777 _234_
*778 _235_
*779 _236_
*780 _237_
*781 _238_
*782 _239_
*783 _240_
*784 _241_
*785 _242_
*786 _243_
*787 _244_
*788 _245_
*789 _246_
*790 _247_
*791 _248_
*792 _249_
*793 _250_
*794 _251_
*795 _252_
*796 _253_
*797 _254_
*798 _255_
*799 _256_
*800 _257_
*801 _258_
*802 _259_
*803 _260_
*804 _261_
*805 _262_
*806 _263_
*807 _264_
*808 _265_
*809 _266__7
*810 _267_
*811 _268__4
*812 _269_
*813 _270_
*814 _271__1
*815 _272_
*816 _273_
*817 _274_
*818 _275_
*819 _276_
*820 _277_
*821 _278_
*822 _279_
*823 _280_
*824 _281_
*825 _282_
*826 _283_
*827 _284_
*828 _285_
*829 _286_
*830 _287_
*831 _288_
*832 _289_
*833 _290_
*834 _291_
*835 _292_
*836 _293_
*837 _294_
*838 _295_
*839 _296_
*840 _297_
*841 _298_
*842 _299_
*843 _300_
*844 _301_
*845 _302_
*846 _303_
*847 _304_
*848 _305_
*849 _306_
*850 _307_
*851 _308_
*852 _309_
*853 _310_
*854 _311_
*855 _312_
*856 _313_
*857 _314_
*858 _315_
*859 _316_
*860 _317_
*861 _318_
*862 _319_
*863 _320_
*864 _321_
*865 _322_
*866 _323_
*867 _324_
*868 _325_
*869 _326_
*870 _327_
*871 _328_
*872 _329_
*873 _330_
*874 _331_
*875 _332_
*876 _333_
*877 _334_
*878 _335_
*879 _336_
*880 _337_
*881 _338_
*882 _339_
*883 _340_
*884 _341_
*885 _342_
*886 _343_
*887 _344_
*888 _345_
*889 _346_
*890 _347_
*891 _348_
*892 _349_
*893 _350_
*894 _351_
*895 _352_
*896 _353_
*897 _354_
*898 _355_
*899 _356_
*900 _357_
*901 _358_
*902 _359_
*903 _360_
*904 _361_
*905 _362_
*906 _363_
*907 _364_
*908 _365_
*909 _366_
*910 _367_
*911 _368_
*912 _369_
*913 _370_
*914 _371_
*915 _372_
*916 _373_
*917 _374_
*918 _375_
*919 _376_
*920 _377_
*921 _378_
*922 _379_
*923 _380_
*924 _381_
*925 _382_
*926 _383_
*927 _384_
*928 _385_
*929 _386_
*930 _387_
*931 _388_
*932 _389_
*933 _390_
*934 _391_
*935 _392_
*936 _393_
*937 _394_
*938 _395_
*939 _396_
*940 _397_
*941 _398_
*942 _399_
*943 _400_
*944 _401_
*945 _402_
*946 _403_
*947 _404_
*948 _405_
*949 _406_
*950 _407_
*951 _408_
*952 _409_
*953 _410_
*954 _411__8
*955 _412__9
*956 _413__5
*957 _414__6
*958 _415__2
*959 _416__3
*960 _417_
*961 _418_
*962 _419_
*963 _419__30
*964 _420_
*965 _421_
*966 _422_
*967 _423_
*968 _424_
*969 _425_
*970 _426_
*971 _427_
*972 _428_
*973 _429_
*974 _430_
*975 _431_
*976 _432_
*977 _433_
*978 _434_
*979 _435_
*980 _436_
*981 _437_
*982 _438_
*983 _439_
*984 _440_
*985 _441_
*986 _442_
*987 _443_
*988 _444_
*989 _445_
*990 _446_
*991 _447_
*992 _448_
*993 _449_
*994 _450_
*995 _451_
*996 _452_
*997 _453_
*998 _454_
*999 _455_
*1000 _456_
*1001 _457_
*1002 _458_
*1003 _459_
*1004 _460_
*1005 _461_
*1006 _462_
*1007 _463_
*1008 _464_
*1009 _465_
*1010 _466_
*1011 _467_
*1012 _468_
*1013 _469_
*1014 _470_
*1015 _471_
*1016 _472_
*1017 _473_
*1018 clkbuf_0__037_
*1019 clkbuf_0_divider\.out
*1020 clkbuf_0_divider2\.out
*1021 clkbuf_0_ext_clk
*1022 clkbuf_0_net10
*1023 clkbuf_0_pll_clk
*1024 clkbuf_0_pll_clk90
*1025 clkbuf_1_0__f__037_
*1026 clkbuf_1_0__f_divider\.out
*1027 clkbuf_1_0__f_divider2\.out
*1028 clkbuf_1_0__f_ext_clk
*1029 clkbuf_1_0__f_net10
*1030 clkbuf_1_0__f_pll_clk
*1031 clkbuf_1_0__f_pll_clk90
*1032 clkbuf_1_1__f__037_
*1033 clkbuf_1_1__f_divider\.out
*1034 clkbuf_1_1__f_divider2\.out
*1035 clkbuf_1_1__f_ext_clk
*1036 clkbuf_1_1__f_net10
*1037 clkbuf_1_1__f_pll_clk
*1038 clkbuf_1_1__f_pll_clk90
*1039 fanout13
*1040 fanout14
*1041 fanout15
*1042 fanout16
*1043 fanout17
*1044 fanout18
*1045 fanout19
*1046 fanout20
*1047 fanout21
*1048 fanout22
*1049 fanout23
*1050 fanout24
*1051 fanout25
*1052 fanout26
*1053 fanout27
*1054 fanout28
*1055 fanout29
*1056 input1
*1057 input2
*1058 input3
*1059 input4
*1060 input5
*1061 input6
*1062 input7
*1063 input8
*1064 input9
*1065 output11
*1066 user_clk_out_buffer

*PORTS
core_clk O
ext_clk I
ext_clk_sel I
ext_reset I
pll_clk I
pll_clk90 I
resetb I
resetb_sync O
sel2[0] I
sel2[1] I
sel2[2] I
sel[0] I
sel[1] I
sel[2] I
user_clk O

*D_NET *3 0.00624665
*CONN
*P core_clk O
*I *955:A I *D sky130_fd_sc_hd__inv_4
*I *1029:X O *D sky130_fd_sc_hd__clkbuf_16
*CAP
1 core_clk 0.00053194
2 *955:A 0.000172512
3 *1029:X 0.000415907
4 *3:10 0.00108015
5 *3:8 0.000791606
6 core_clk *83:9 0.000814417
7 core_clk *291:197 7.40667e-05
8 core_clk *292:122 0
9 core_clk *292:127 0
10 core_clk *293:137 0.000111009
11 core_clk *304:21 9.29352e-05
12 core_clk *310:8 0.000449143
13 *955:A *1035:A 4.50994e-05
14 *955:A *1036:A 9.66585e-05
15 *955:A *218:9 9.79925e-05
16 *3:8 *300:139 0.000618845
17 *3:8 *304:47 5.58003e-05
18 *3:10 *83:9 0.000162579
19 *3:10 *218:21 0.000204331
20 *3:10 *267:55 0.000163361
21 *3:10 *291:116 9.2018e-06
22 *3:10 *291:197 5.71002e-06
23 *3:10 *292:248 2.05503e-05
24 *3:10 *300:147 0.000228586
25 *3:10 *304:32 4.24694e-06
*RES
1 *1029:X *3:8 45.4364 
2 *3:8 *3:10 9.30071 
3 *3:10 *955:A 41.5007 
4 *3:10 core_clk 14.3343 
*END

*D_NET *4 0.00275002
*CONN
*P ext_clk I
*I *411:DIODE I *D sky130_fd_sc_hd__diode_2
*I *1021:A I *D sky130_fd_sc_hd__clkbuf_16
*CAP
1 ext_clk 0.000568381
2 *411:DIODE 0
3 *1021:A 5.28234e-05
4 *4:5 0.000621205
5 *1021:A *87:8 8.96698e-05
6 *1021:A *267:38 2.95423e-05
7 *1021:A *269:47 5.3304e-05
8 *1021:A *292:220 8.75132e-05
9 *4:5 *36:8 0
10 *4:5 *85:14 4.09912e-05
11 *4:5 *87:8 0.000102024
12 *4:5 *117:8 0.000134521
13 *4:5 *132:10 9.02714e-05
14 *4:5 *217:10 3.70386e-05
15 *4:5 *286:6 0.000416233
16 *4:5 *292:103 0.000199993
17 *4:5 *292:220 8.78864e-05
18 *4:5 *293:163 2.31365e-05
19 *4:5 *301:228 1.27508e-05
20 *4:5 *307:15 0.000102733
*RES
1 ext_clk *4:5 13.63 
2 *4:5 *1021:A 39.8229 
3 *4:5 *411:DIODE 38 
*END

*D_NET *5 0.00777167
*CONN
*P ext_clk_sel I
*I *1056:A I *D sky130_fd_sc_hd__clkbuf_1
*I *417:DIODE I *D sky130_fd_sc_hd__diode_2
*CAP
1 ext_clk_sel 0.000593161
2 *1056:A 0
3 *417:DIODE 0.000270169
4 *5:22 0.000711117
5 *5:18 0.00112386
6 *5:10 0.00127607
7 *417:DIODE *152:35 9.67842e-05
8 *5:10 *902:B 0
9 *5:10 *152:43 2.29414e-05
10 *5:10 *255:22 6.07611e-06
11 *5:18 *767:A0 9.84851e-05
12 *5:18 *15:22 0
13 *5:18 *49:34 6.27464e-05
14 *5:18 *293:11 0.000275822
15 *5:18 *293:16 0
16 *5:22 *846:C 0
17 *5:22 *14:19 0.00157831
18 *5:22 *28:14 1.01436e-05
19 *5:22 *152:26 1.3822e-05
20 *5:22 *293:20 0.00163216
*RES
1 ext_clk_sel *5:10 24.7659 
2 *5:10 *5:18 40.7507 
3 *5:18 *5:22 35.9629 
4 *5:22 *417:DIODE 42.4329 
5 *5:10 *1056:A 23 
*END

*D_NET *6 0.018981
*CONN
*P ext_reset I
*I *1057:A I *D sky130_fd_sc_hd__clkbuf_1
*I *418:DIODE I *D sky130_fd_sc_hd__diode_2
*CAP
1 ext_reset 0.000469422
2 *1057:A 0
3 *418:DIODE 0
4 *6:46 0.000622067
5 *6:42 0.00112388
6 *6:37 0.00149142
7 *6:23 0.00319675
8 *6:12 0.00267656
9 *6:12 *8:8 0.000208758
10 *6:12 *13:12 0
11 *6:12 *139:8 1.09917e-05
12 *6:12 *145:308 0
13 *6:12 *298:6 3.97596e-05
14 *6:23 *404:DIODE 4.51842e-05
15 *6:23 *927:B 9.9699e-06
16 *6:23 *929:A_N 2.26497e-05
17 *6:23 *1011:CLK 8.57577e-05
18 *6:23 *1012:RESET_B 0.000306704
19 *6:23 *8:8 2.33476e-05
20 *6:23 *13:12 0.000168808
21 *6:23 *139:8 1.05658e-05
22 *6:23 *145:21 0.000257306
23 *6:23 *145:276 0.00075279
24 *6:23 *145:295 0.00016096
25 *6:23 *145:308 2.02632e-05
26 *6:23 *233:70 0.00024476
27 *6:23 *263:11 0
28 *6:23 *277:16 1.33173e-05
29 *6:23 *290:15 8.3544e-05
30 *6:23 *291:273 0
31 *6:23 *292:24 5.0706e-05
32 *6:23 *308:159 0.000410241
33 *6:23 *308:165 0.000100504
34 *6:23 *308:204 8.76887e-05
35 *6:37 *931:B 0.000477474
36 *6:37 *982:CLK 0.000229801
37 *6:37 *11:14 0.000683787
38 *6:37 *13:26 0
39 *6:37 *128:8 2.57938e-05
40 *6:37 *262:37 0.000132749
41 *6:37 *294:31 7.57281e-06
42 *6:37 *322:11 0.000192251
43 *6:37 *325:22 8.29264e-05
44 *6:42 *969:CLK 0
45 *6:42 *13:26 0.000794374
46 *6:42 *15:22 0
47 *6:42 *16:36 0.000752366
48 *6:42 *28:6 0
49 *6:42 *299:13 0.000241989
50 *6:46 *423:DIODE 5.56306e-05
51 *6:46 *14:19 8.96607e-05
52 *6:46 *15:28 0.00130535
53 *6:46 *16:36 0.00117844
54 *6:46 *170:8 0
55 *6:46 *293:20 2.4754e-05
56 *6:46 *293:28 1.14452e-05
57 *6:46 *303:72 0
58 *6:46 *303:82 0
*RES
1 ext_reset *6:12 11.9546 
2 *6:12 *6:23 48.7293 
3 *6:23 *6:37 44.2839 
4 *6:37 *6:42 44.2307 
5 *6:42 *6:46 37.1436 
6 *6:46 *418:DIODE 38 
7 *6:12 *1057:A 38 
*END

*D_NET *7 0.0092448
*CONN
*P pll_clk I
*I *413:DIODE I *D sky130_fd_sc_hd__diode_2
*I *1023:A I *D sky130_fd_sc_hd__clkbuf_16
*CAP
1 pll_clk 0.00144535
2 *413:DIODE 0
3 *1023:A 9.58571e-05
4 *7:22 0.000730108
5 *7:21 0.00181181
6 *7:15 0.00262291
7 *1023:A *112:19 5.55362e-05
8 *7:15 *859:A3 0
9 *7:15 *931:B 0
10 *7:15 *13:12 3.67441e-05
11 *7:15 *13:26 0.000477634
12 *7:15 *33:6 4.11274e-05
13 *7:15 *45:11 0
14 *7:15 *95:8 0.000312366
15 *7:15 *145:308 0
16 *7:15 *167:16 3.20828e-05
17 *7:15 *200:10 0
18 *7:15 *216:8 0
19 *7:15 *216:15 0
20 *7:15 *262:11 0
21 *7:15 *283:8 0.000305597
22 *7:15 *292:67 4.80423e-06
23 *7:15 *322:11 0
24 *7:21 *8:22 4.21188e-05
25 *7:21 *8:42 0.000304569
26 *7:21 *204:10 1.88661e-05
27 *7:21 *233:17 2.3612e-05
28 *7:21 *301:41 0.000282138
29 *7:21 *301:53 0.000138859
30 *7:21 *307:88 0
31 *7:21 *307:96 0
32 *7:22 *112:19 0.000233421
33 *7:22 *233:17 0.000229296
*RES
1 pll_clk *7:15 42.9643 
2 *7:15 *7:21 45.8671 
3 *7:21 *7:22 9.67357 
4 *7:22 *1023:A 24.595 
5 *7:22 *413:DIODE 23 
*END

*D_NET *8 0.011131
*CONN
*P pll_clk90 I
*I *1024:A I *D sky130_fd_sc_hd__clkbuf_16
*I *412:DIODE I *D sky130_fd_sc_hd__diode_2
*CAP
1 pll_clk90 0.00170606
2 *1024:A 0
3 *412:DIODE 3.14829e-05
4 *8:42 0.000711177
5 *8:22 0.00159622
6 *8:16 0.00145985
7 *8:8 0.00231234
8 *8:8 *925:A_N 2.73061e-05
9 *8:8 *951:D 0.000195799
10 *8:8 *12:11 0
11 *8:8 *50:29 7.01044e-06
12 *8:8 *139:8 4.47699e-05
13 *8:8 *261:32 0.000161735
14 *8:8 *265:7 1.07142e-05
15 *8:8 *265:21 0.000169674
16 *8:8 *293:128 0
17 *8:8 *294:12 2.38535e-05
18 *8:8 *294:67 0.00025898
19 *8:16 *1010:CLK 6.30533e-05
20 *8:16 *1012:RESET_B 6.58712e-05
21 *8:16 *12:26 4.76012e-05
22 *8:16 *129:8 0.000306224
23 *8:16 *262:5 7.43114e-05
24 *8:16 *262:20 0.000192958
25 *8:16 *291:54 3.81356e-05
26 *8:16 *291:260 4.66395e-05
27 *8:16 *308:159 7.17126e-05
28 *8:16 *308:165 4.79531e-05
29 *8:22 *1017:D 0.000140487
30 *8:22 *301:41 9.62573e-05
31 *8:22 *301:53 4.28776e-05
32 *8:42 *145:44 8.36198e-05
33 *8:42 *207:5 3.2277e-05
34 *8:42 *233:17 0.000379874
35 *8:42 *301:68 8.65242e-05
36 *8:42 *307:88 1.88797e-05
37 *6:12 *8:8 0.000208758
38 *6:23 *8:8 2.33476e-05
39 *7:21 *8:22 4.21188e-05
40 *7:21 *8:42 0.000304569
*RES
1 pll_clk90 *8:8 44.4143 
2 *8:8 *8:16 43.5471 
3 *8:16 *8:22 11.745 
4 *8:22 *412:DIODE 23.6214 
5 *8:22 *8:42 43.4436 
6 *8:42 *1024:A 23 
*END

*D_NET *9 0.00722467
*CONN
*P resetb I
*I *1058:A I *D sky130_fd_sc_hd__clkbuf_1
*I *419:DIODE I *D sky130_fd_sc_hd__diode_2
*CAP
1 resetb 0.000617707
2 *1058:A 4.47995e-05
3 *419:DIODE 0
4 *9:36 0.000264644
5 *9:30 0.00129349
6 *9:13 0.00169135
7 *1058:A *286:11 1.59094e-05
8 *9:13 *55:8 6.10551e-06
9 *9:13 *85:9 0.000381955
10 *9:13 *305:12 0.000184217
11 *9:13 *330:38 0
12 *9:30 *781:A1 0.000365205
13 *9:30 *803:A 9.66585e-05
14 *9:30 *934:A_N 0
15 *9:30 *998:RESET_B 0.00026582
16 *9:30 *1004:RESET_B 0.000154386
17 *9:30 *42:5 9.41704e-05
18 *9:30 *43:8 0
19 *9:30 *82:12 7.10124e-05
20 *9:30 *113:11 0.000132034
21 *9:30 *120:8 0.000106754
22 *9:30 *224:8 0
23 *9:30 *273:39 1.85483e-05
24 *9:30 *275:33 0.000299696
25 *9:30 *291:141 9.9025e-06
26 *9:30 *291:157 3.25484e-05
27 *9:30 *292:193 0
28 *9:30 *304:10 0
29 *9:30 *305:12 0.000153493
30 *9:30 *305:14 0.000407285
31 *9:30 *305:27 8.3987e-05
32 *9:30 *309:6 0.000108892
33 *9:36 *992:CLK 0
34 *9:36 *79:14 0.000139982
35 *9:36 *120:8 0.000176539
36 *9:36 *274:9 7.57281e-06
*RES
1 resetb *9:13 11.4964 
2 *9:13 *9:30 40.375 
3 *9:30 *9:36 34.1843 
4 *9:36 *419:DIODE 23 
5 *9:13 *1058:A 38.6214 
*END

*D_NET *10 0.00767468
*CONN
*P resetb_sync O
*I *1065:X O *D sky130_fd_sc_hd__buf_12
*CAP
1 resetb_sync 0.000950658
2 *1065:X 9.606e-05
3 *10:21 0.00247989
4 *10:6 0.00162529
5 resetb_sync *1032:A 0
6 resetb_sync *1066:A 0.000130174
7 resetb_sync *144:49 0
8 resetb_sync *161:8 1.13812e-05
9 resetb_sync *214:17 0
10 resetb_sync *281:34 0.000180145
11 resetb_sync *284:8 7.75677e-05
12 resetb_sync *317:6 3.88725e-05
13 *10:6 *263:20 0.000129073
14 *10:6 *263:25 8.55022e-05
15 *10:6 *263:52 2.68751e-05
16 *10:6 *293:114 0.000239475
17 *10:21 *349:DIODE 0.000292489
18 *10:21 *857:A 3.08732e-05
19 *10:21 *857:B 0.000215422
20 *10:21 *951:A 5.58003e-05
21 *10:21 *166:10 1.83618e-05
22 *10:21 *229:8 0.000140209
23 *10:21 *260:34 0.000271906
24 *10:21 *279:26 0.000578657
*RES
1 *1065:X *10:6 41.3143 
2 *10:6 *10:21 39.4636 
3 *10:21 resetb_sync 33.9329 
*END

*D_NET *11 0.0118288
*CONN
*P sel2[0] I
*I *1059:A I *D sky130_fd_sc_hd__clkbuf_1
*I *420:DIODE I *D sky130_fd_sc_hd__diode_2
*CAP
1 sel2[0] 0.000347134
2 *1059:A 0.000125668
3 *420:DIODE 0
4 *11:17 0.00138038
5 *11:14 0.00338135
6 *11:7 0.00247377
7 *1059:A *952:B1 8.20446e-05
8 *1059:A *12:11 0
9 *1059:A *265:21 4.38476e-05
10 *11:14 *952:B1 9.81336e-05
11 *11:14 *994:D 0
12 *11:14 *995:CLK 8.17774e-05
13 *11:14 *12:11 0
14 *11:14 *15:22 0.000282018
15 *11:14 *128:8 0.000124431
16 *11:14 *145:21 1.13839e-05
17 *11:14 *233:72 9.6453e-05
18 *11:14 *235:43 0.000717024
19 *11:14 *235:54 5.17967e-05
20 *11:14 *236:9 0
21 *11:14 *262:37 0.00012854
22 *11:14 *291:44 3.62252e-05
23 *11:14 *293:66 0.000262089
24 *11:14 *293:83 0.000215962
25 *11:14 *294:20 2.12164e-05
26 *11:14 *294:31 0
27 *11:14 *308:125 4.51797e-05
28 *11:14 *308:159 3.49608e-05
29 *11:14 *326:23 0.000404195
30 *11:17 *766:A1 2.64616e-05
31 *11:17 *766:S 0.000116603
32 *11:17 *913:A2 0.00017172
33 *11:17 *69:14 0.000115
34 *11:17 *244:36 0.000141838
35 *11:17 *245:15 9.5877e-05
36 *11:17 *295:25 3.19489e-05
37 *6:37 *11:14 0.000683787
*RES
1 sel2[0] *11:7 8.84373 
2 *11:7 *11:14 42.7862 
3 *11:14 *11:17 32.7729 
4 *11:17 *420:DIODE 23 
5 *11:7 *1059:A 41.1382 
*END

*D_NET *12 0.0106574
*CONN
*P sel2[1] I
*I *1060:A I *D sky130_fd_sc_hd__clkbuf_1
*I *421:DIODE I *D sky130_fd_sc_hd__diode_2
*CAP
1 sel2[1] 0.000822084
2 *1060:A 0
3 *421:DIODE 0.000220458
4 *12:32 0.000764952
5 *12:26 0.00208051
6 *12:11 0.0023581
7 *421:DIODE *422:DIODE 5.79559e-05
8 *421:DIODE *49:24 6.12568e-05
9 *421:DIODE *49:34 0.0002263
10 *421:DIODE *72:8 0.000141954
11 *12:11 *265:21 0
12 *12:11 *293:83 6.17437e-06
13 *12:26 *946:D1 1.05441e-05
14 *12:26 *953:A 3.56477e-05
15 *12:26 *995:CLK 0.000377993
16 *12:26 *1010:RESET_B 0.000200298
17 *12:26 *16:32 0.000266102
18 *12:26 *129:8 2.05919e-05
19 *12:26 *233:70 1.01436e-05
20 *12:26 *233:72 0.000568724
21 *12:26 *235:43 1.84049e-05
22 *12:26 *262:20 4.60263e-05
23 *12:26 *262:22 4.08215e-05
24 *12:26 *264:7 5.3304e-05
25 *12:26 *293:83 4.49397e-05
26 *12:26 *296:157 0.000525165
27 *12:32 *767:A0 0.000102148
28 *12:32 *946:D1 9.41704e-05
29 *12:32 *16:32 0.000401912
30 *12:32 *72:8 3.71198e-05
31 *12:32 *235:43 0
32 *12:32 *251:8 0.000426048
33 *12:32 *292:18 1.26108e-05
34 *12:32 *292:286 0.000351404
35 *12:32 *303:40 0.000122699
36 *12:32 *303:43 9.41704e-05
37 *12:32 *303:144 9.03052e-06
38 *1059:A *12:11 0
39 *8:8 *12:11 0
40 *8:16 *12:26 4.76012e-05
41 *11:14 *12:11 0
*RES
1 sel2[1] *12:11 36.9512 
2 *12:11 *12:26 42.115 
3 *12:26 *12:32 44.2721 
4 *12:32 *421:DIODE 43.3857 
5 *12:11 *1060:A 23 
*END

*D_NET *13 0.013226
*CONN
*P sel2[2] I
*I *1061:A I *D sky130_fd_sc_hd__clkbuf_1
*I *422:DIODE I *D sky130_fd_sc_hd__diode_2
*CAP
1 sel2[2] 0.00205254
2 *1061:A 3.85622e-05
3 *422:DIODE 7.43477e-05
4 *13:26 0.00215378
5 *13:12 0.00417053
6 *422:DIODE *49:24 4.71942e-06
7 *1061:A *996:CLK 0.000139982
8 *1061:A *321:17 0.000139982
9 *13:12 *95:8 0.000123139
10 *13:12 *292:51 0.000193872
11 *13:12 *292:67 4.62421e-06
12 *13:26 *931:A 1.1595e-05
13 *13:26 *931:B 0
14 *13:26 *969:D 0.000170345
15 *13:26 *28:6 0
16 *13:26 *202:8 0.000609691
17 *13:26 *234:6 0.000359604
18 *13:26 *245:8 0
19 *13:26 *245:15 0
20 *13:26 *278:8 0
21 *13:26 *283:8 0.000307753
22 *13:26 *292:24 1.74874e-06
23 *13:26 *292:40 0.000719277
24 *13:26 *292:51 0.000274465
25 *13:26 *294:31 0
26 *13:26 *299:8 1.94812e-05
27 *13:26 *299:13 9.41172e-05
28 *13:26 *308:117 4.15283e-06
29 *13:26 *308:130 2.22077e-05
30 *13:26 *325:22 0
31 *421:DIODE *422:DIODE 5.79559e-05
32 *6:12 *13:12 0
33 *6:23 *13:12 0.000168808
34 *6:37 *13:26 0
35 *6:42 *13:26 0.000794374
36 *7:15 *13:12 3.67441e-05
37 *7:15 *13:26 0.000477634
*RES
1 sel2[2] *13:12 15.0869 
2 *13:12 *13:26 46.9386 
3 *13:26 *422:DIODE 39.0979 
4 *13:12 *1061:A 39.5743 
*END

*D_NET *14 0.00635468
*CONN
*P sel[0] I
*I *1062:A I *D sky130_fd_sc_hd__clkbuf_1
*I *423:DIODE I *D sky130_fd_sc_hd__diode_2
*CAP
1 sel[0] 0.000675175
2 *1062:A 0
3 *423:DIODE 0.000147672
4 *14:19 0.00133058
5 *14:16 0.00137454
6 *14:11 0.000866807
7 *423:DIODE *15:28 0
8 *423:DIODE *16:41 0
9 *423:DIODE *293:20 0
10 *14:11 *902:B 0
11 *14:11 *187:6 0
12 *14:11 *288:10 0
13 *14:16 *288:10 2.77188e-05
14 *14:19 *16:36 3.53115e-05
15 *14:19 *293:20 0.000173278
16 *5:22 *14:19 0.00157831
17 *6:46 *423:DIODE 5.56306e-05
18 *6:46 *14:19 8.96607e-05
*RES
1 sel[0] *14:11 34.0482 
2 *14:11 *14:16 33.6664 
3 *14:16 *14:19 48.495 
4 *14:19 *423:DIODE 40.9621 
5 *14:11 *1062:A 23 
*END

*D_NET *15 0.0101863
*CONN
*P sel[1] I
*I *1063:A I *D sky130_fd_sc_hd__clkbuf_1
*I *424:DIODE I *D sky130_fd_sc_hd__diode_2
*CAP
1 sel[1] 0.000443816
2 *1063:A 0
3 *424:DIODE 0
4 *15:28 0.00114877
5 *15:22 0.00281465
6 *15:11 0.00210969
7 *15:11 *1064:A 7.42924e-05
8 *15:11 *16:32 7.32554e-06
9 *15:11 *250:5 7.27655e-06
10 *15:11 *250:11 0.000149814
11 *15:11 *325:8 2.11157e-05
12 *15:22 *982:D 0.000126396
13 *15:22 *982:RESET_B 0.000294073