*SPEF "ieee 1481-1999"
*DESIGN "buff_flash_clkrst"
*DATE "11:11:11 Fri 11 11, 1111"
*VENDOR "OpenRCX"
*PROGRAM "Parallel Extraction"
*VERSION "1.0"
*DESIGN_FLOW "NAME_SCOPE LOCAL" "PIN_CAP NONE"
*DIVIDER /
*DELIMITER :
*BUS_DELIMITER []
*T_UNIT 1 NS
*C_UNIT 1 PF
*R_UNIT 1 OHM
*L_UNIT 1 HENRY

*NAME_MAP
*3 in_n[0]
*4 in_n[10]
*5 in_n[11]
*6 in_n[1]
*7 in_n[2]
*8 in_n[3]
*9 in_n[4]
*10 in_n[5]
*11 in_n[6]
*12 in_n[7]
*13 in_n[8]
*14 in_n[9]
*15 in_s[0]
*16 in_s[1]
*17 in_s[2]
*18 out_n[0]
*19 out_n[1]
*20 out_n[2]
*21 out_s[0]
*22 out_s[10]
*23 out_s[11]
*24 out_s[1]
*25 out_s[2]
*26 out_s[3]
*27 out_s[4]
*28 out_s[5]
*29 out_s[6]
*30 out_s[7]
*31 out_s[8]
*32 out_s[9]
*33 BUF\[0\]
*34 BUF\[10\]
*35 BUF\[11\]
*36 BUF\[12\]
*37 BUF\[13\]
*38 BUF\[14\]
*39 BUF\[1\]
*40 BUF\[2\]
*41 BUF\[3\]
*42 BUF\[4\]
*43 BUF\[5\]
*44 BUF\[6\]
*45 BUF\[7\]
*46 BUF\[8\]
*47 BUF\[9\]
*48 FILLER_0_19
*49 FILLER_0_27
*50 FILLER_0_29
*51 FILLER_0_3
*52 FILLER_0_41
*53 FILLER_0_54
*54 FILLER_0_57
*55 FILLER_0_7
*56 FILLER_0_70
*57 FILLER_0_74
*58 FILLER_1_17
*59 FILLER_1_3
*60 FILLER_1_32
*61 FILLER_1_47
*62 FILLER_1_55
*63 FILLER_1_57
*64 FILLER_1_70
*65 FILLER_1_74
*66 FILLER_2_26
*67 FILLER_2_29
*68 FILLER_2_3
*69 FILLER_2_52
*70 FILLER_2_67
*71 FILLER_3_15
*72 FILLER_3_27
*73 FILLER_3_3
*74 FILLER_3_42
*75 FILLER_3_54
*76 FILLER_3_57
*77 FILLER_3_70
*78 FILLER_3_74
*79 FILLER_4_19
*80 FILLER_4_27
*81 FILLER_4_29
*82 FILLER_4_3
*83 FILLER_4_41
*84 FILLER_4_53
*85 FILLER_4_57
*86 FILLER_4_7
*87 FILLER_4_70
*88 FILLER_4_74
*89 PHY_0
*90 PHY_1
*91 PHY_2
*92 PHY_3
*93 PHY_4
*94 PHY_5
*95 PHY_6
*96 PHY_7
*97 PHY_8
*98 PHY_9
*99 TAP_10
*100 TAP_11
*101 TAP_12
*102 TAP_13
*103 TAP_14
*104 TAP_15
*105 TAP_16

*PORTS
in_n[0] I
in_n[10] I
in_n[11] I
in_n[1] I
in_n[2] I
in_n[3] I
in_n[4] I
in_n[5] I
in_n[6] I
in_n[7] I
in_n[8] I
in_n[9] I
in_s[0] I
in_s[1] I
in_s[2] I
out_n[0] O
out_n[1] O
out_n[2] O
out_s[0] O
out_s[10] O
out_s[11] O
out_s[1] O
out_s[2] O
out_s[3] O
out_s[4] O
out_s[5] O
out_s[6] O
out_s[7] O
out_s[8] O
out_s[9] O

*D_NET *3 0.000698578
*CONN
*P in_n[0] I
*I *41:A I *D sky130_fd_sc_hd__clkbuf_8
*CAP
1 in_n[0] 0.000265612
2 *41:A 0.000265612
3 *41:A out_n[2] 0.000167353
4 *41:A *42:A 0
*RES
1 in_n[0] *41:A 9.255 
*END

*D_NET *4 0.000496833
*CONN
*P in_n[10] I
*I *37:A I *D sky130_fd_sc_hd__clkbuf_8
*CAP
1 in_n[10] 0.000223693
2 *37:A 0.000223693
3 *37:A out_s[10] 4.94474e-05
4 *37:A *36:A 0
5 *37:A *38:A 0
*RES
1 in_n[10] *37:A 7.59 
*END

*D_NET *5 0.00265835
*CONN
*P in_n[11] I
*I *38:A I *D sky130_fd_sc_hd__clkbuf_8
*CAP
1 in_n[11] 0.0010441
2 *38:A 0.0010441
3 *38:A out_s[10] 0
4 *38:A out_s[11] 0.000287765
5 *38:A out_s[9] 0.000123225
6 *38:A *36:A 0.000159156
7 *37:A *38:A 0
*RES
1 in_n[11] *38:A 23.025 
*END

*D_NET *6 0.00123947
*CONN
*P in_n[1] I
*I *42:A I *D sky130_fd_sc_hd__clkbuf_8
*CAP
1 in_n[1] 0.000265945
2 *42:A 0.000265945
3 *42:A out_s[0] 7.75325e-05
4 *42:A *43:A 0.000630049
5 *41:A *42:A 0
*RES
1 in_n[1] *42:A 11.115 
*END

*D_NET *7 0.00183936
*CONN
*P in_n[2] I
*I *43:A I *D sky130_fd_sc_hd__clkbuf_8
*CAP
1 in_n[2] 0.000568975
2 *43:A 0.000568975
3 *43:A out_s[0] 0
4 *43:A out_s[1] 6.55328e-05
5 *43:A out_s[2] 5.83121e-06
6 *43:A *44:A 0
7 *42:A *43:A 0.000630049
*RES
1 in_n[2] *43:A 15.165 
*END

*D_NET *8 0.000671935
*CONN
*P in_n[3] I
*I *44:A I *D sky130_fd_sc_hd__clkbuf_8
*CAP
1 in_n[3] 0.000335968
2 *44:A 0.000335968
3 *44:A *45:A 0
4 *43:A *44:A 0
*RES
1 in_n[3] *44:A 9.255 
*END

*D_NET *9 0.00122617
*CONN
*P in_n[4] I
*I *45:A I *D sky130_fd_sc_hd__clkbuf_8
*CAP
1 in_n[4] 0.00052251
2 *45:A 0.00052251
3 *45:A out_s[3] 0.000181152
4 *45:A *46:A 0
5 *44:A *45:A 0
*RES
1 in_n[4] *45:A 13.335 
*END

*D_NET *10 0.000985911
*CONN
*P in_n[5] I
*I *46:A I *D sky130_fd_sc_hd__clkbuf_8
*CAP
1 in_n[5] 0.000492956
2 *46:A 0.000492956
3 *45:A *46:A 0
*RES
1 in_n[5] *46:A 11.805 
*END

*D_NET *11 0.00156745
*CONN
*P in_n[6] I
*I *47:A I *D sky130_fd_sc_hd__clkbuf_8
*CAP
1 in_n[6] 0.000410161
2 *47:A 0.000410161
3 *47:A out_s[6] 0.00012349
4 *47:A *34:A 0.000623638
*RES
1 in_n[6] *47:A 13.29 
*END

*D_NET *12 0.00169542
*CONN
*P in_n[7] I
*I *34:A I *D sky130_fd_sc_hd__clkbuf_8
*CAP
1 in_n[7] 0.000457718
2 *34:A 0.000457718
3 *34:A out_s[6] 4.04613e-05
4 *34:A out_s[7] 0.000115886
5 *34:A out_s[8] 0
6 *34:A *35:A 0
7 *47:A *34:A 0.000623638
*RES
1 in_n[7] *34:A 14.025 
*END

*D_NET *13 0.000773264
*CONN
*P in_n[8] I
*I *35:A I *D sky130_fd_sc_hd__clkbuf_8
*CAP
1 in_n[8] 0.000383717
2 *35:A 0.000383717
3 *35:A out_s[8] 5.83121e-06
4 *35:A *36:A 0
5 *34:A *35:A 0
*RES
1 in_n[8] *35:A 9.81 
*END

*D_NET *14 0.00175178
*CONN
*P in_n[9] I
*I *36:A I *D sky130_fd_sc_hd__clkbuf_8
*CAP
1 in_n[9] 0.00074955
2 *36:A 0.00074955
3 *36:A out_s[10] 0
4 *36:A out_s[11] 9.3521e-05
5 *35:A *36:A 0
6 *37:A *36:A 0
7 *38:A *36:A 0.000159156
*RES
1 in_n[9] *36:A 16.68 
*END

*D_NET *15 0.000514326
*CONN
*P in_s[0] I
*I *33:A I *D sky130_fd_sc_hd__clkbuf_8
*CAP
1 in_s[0] 0.000213288
2 *33:A 0.000213288
3 *33:A out_n[0] 8.77498e-05
4 *33:A *39:A 0
*RES
1 in_s[0] *33:A 7.05 
*END

*D_NET *16 0.00178446
*CONN
*P in_s[1] I
*I *39:A I *D sky130_fd_sc_hd__clkbuf_8
*CAP
1 in_s[1] 0.000549895
2 *39:A 0.000549895
3 *39:A out_n[0] 0.000684666
4 *39:A out_n[2] 0
5 *39:A *40:A 0
6 *33:A *39:A 0
*RES
1 in_s[1] *39:A 15.075 
*END

*D_NET *17 0.000663109
*CONN
*P in_s[2] I
*I *40:A I *D sky130_fd_sc_hd__clkbuf_8
*CAP
1 in_s[2] 0.000331555
2 *40:A 0.000331555
3 *40:A out_s[0] 0
4 *39:A *40:A 0
*RES
1 in_s[2] *40:A 8.91 
*END

*D_NET *18 0.00231172
*CONN
*P out_n[0] O
*I *33:X O *D sky130_fd_sc_hd__clkbuf_8
*CAP
1 out_n[0] 0.000769652
2 *33:X 0.000769652
3 out_n[0] out_n[1] 0
4 out_n[0] out_n[2] 0
5 *33:A out_n[0] 8.77498e-05
6 *39:A out_n[0] 0.000684666
*RES
1 *33:X out_n[0] 19.095 
*END

*D_NET *19 0.000816795
*CONN
*P out_n[1] O
*I *39:X O *D sky130_fd_sc_hd__clkbuf_8
*CAP
1 out_n[1] 0.000285665
2 *39:X 0.000285665
3 out_n[1] out_n[2] 0.000245465
4 out_n[0] out_n[1] 0
*RES
1 *39:X out_n[1] 8.955 
*END

*D_NET *20 0.00152863
*CONN
*P out_n[2] O
*I *40:X O *D sky130_fd_sc_hd__clkbuf_8
*CAP
1 out_n[2] 0.000557907
2 *40:X 0.000557907
3 out_n[2] out_s[0] 0
4 out_n[0] out_n[2] 0
5 out_n[1] out_n[2] 0.000245465
6 *39:A out_n[2] 0
7 *41:A out_n[2] 0.000167353
*RES
1 *40:X out_n[2] 14.475 
*END

*D_NET *21 0.00137998
*CONN
*P out_s[0] O
*I *41:X O *D sky130_fd_sc_hd__clkbuf_8
*CAP
1 out_s[0] 0.000500863
2 *41:X 0.000500863
3 out_s[0] out_s[1] 0.000300724
4 out_s[0] out_s[2] 0
5 out_n[2] out_s[0] 0
6 *40:A out_s[0] 0
7 *42:A out_s[0] 7.75325e-05
8 *43:A out_s[0] 0
*RES
1 *41:X out_s[0] 15.21 
*END

*D_NET *22 0.00187612
*CONN
*P out_s[10] O
*I *37:X O *D sky130_fd_sc_hd__clkbuf_8
*CAP
1 out_s[10] 0.000913335
2 *37:X 0.000913335
3 out_s[10] out_s[11] 0
4 out_s[10] out_s[9] 0
5 *36:A out_s[10] 0
6 *37:A out_s[10] 4.94474e-05
7 *38:A out_s[10] 0
*RES
1 *37:X out_s[10] 17.595 
*END

*D_NET *23 0.00239933
*CONN
*P out_s[11] O
*I *38:X O *D sky130_fd_sc_hd__clkbuf_8
*CAP
1 out_s[11] 0.000947411
2 *38:X 0.000947411
3 out_s[11] out_s[9] 0.000123225
4 out_s[10] out_s[11] 0
5 *36:A out_s[11] 9.3521e-05
6 *38:A out_s[11] 0.000287765
*RES
1 *38:X out_s[11] 15.78 
*END

*D_NET *24 0.00130092
*CONN
*P out_s[1] O
*I *42:X O *D sky130_fd_sc_hd__clkbuf_8
*CAP
1 out_s[1] 0.000361344
2 *42:X 0.000361344
3 out_s[1] out_s[2] 0.000211976
4 out_s[1] out_s[3] 0
5 out_s[0] out_s[1] 0.000300724
6 *43:A out_s[1] 6.55328e-05
*RES
1 *42:X out_s[1] 12.165 
*END

*D_NET *25 0.000903705
*CONN
*P out_s[2] O
*I *43:X O *D sky130_fd_sc_hd__clkbuf_8
*CAP
1 out_s[2] 0.000342949
2 *43:X 0.000342949
3 out_s[2] out_s[3] 0
4 out_s[0] out_s[2] 0
5 out_s[1] out_s[2] 0.000211976
6 *43:A out_s[2] 5.83121e-06
*RES
1 *43:X out_s[2] 11.475 
*END

*D_NET *26 0.00133229
*CONN
*P out_s[3] O
*I *44:X O *D sky130_fd_sc_hd__clkbuf_8
*CAP
1 out_s[3] 0.000575568
2 *44:X 0.000575568
3 out_s[3] out_s[4] 0
4 out_s[3] out_s[5] 0
5 out_s[1] out_s[3] 0
6 out_s[2] out_s[3] 0
7 *45:A out_s[3] 0.000181152
*RES
1 *44:X out_s[3] 13.77 
*END

*D_NET *27 0.00079736
*CONN
*P out_s[4] O
*I *45:X O *D sky130_fd_sc_hd__clkbuf_8
*CAP
1 out_s[4] 0.000337866
2 *45:X 0.000337866
3 out_s[4] out_s[5] 0.000121628
4 out_s[3] out_s[4] 0
*RES
1 *45:X out_s[4] 9.9 
*END

*D_NET *28 0.00105662
*CONN
*P out_s[5] O
*I *46:X O *D sky130_fd_sc_hd__clkbuf_8
*CAP
1 out_s[5] 0.000467496
2 *46:X 0.000467496
3 out_s[5] out_s[6] 0
4 out_s[3] out_s[5] 0
5 out_s[4] out_s[5] 0.000121628
*RES
1 *46:X out_s[5] 11.475 
*END

*D_NET *29 0.00170008
*CONN
*P out_s[6] O
*I *47:X O *D sky130_fd_sc_hd__clkbuf_8
*CAP
1 out_s[6] 0.000724414
2 *47:X 0.000724414
3 out_s[6] out_s[7] 8.73036e-05
4 out_s[5] out_s[6] 0
5 *34:A out_s[6] 4.04613e-05
6 *47:A out_s[6] 0.00012349
*RES
1 *47:X out_s[6] 15.135 
*END

*D_NET *30 0.00123387
*CONN
*P out_s[7] O
*I *34:X O *D sky130_fd_sc_hd__clkbuf_8
*CAP
1 out_s[7] 0.000515339
2 *34:X 0.000515339
3 out_s[7] out_s[8] 0
4 out_s[6] out_s[7] 8.73036e-05
5 *34:A out_s[7] 0.000115886
*RES
1 *34:X out_s[7] 12.45 
*END

*D_NET *31 0.00148373
*CONN
*P out_s[8] O
*I *35:X O *D sky130_fd_sc_hd__clkbuf_8
*CAP
1 out_s[8] 0.000716184
2 *35:X 0.000716184
3 out_s[8] out_s[9] 4.55329e-05
4 out_s[7] out_s[8] 0
5 *34:A out_s[8] 0
6 *35:A out_s[8] 5.83121e-06
*RES
1 *35:X out_s[8] 15.015 
*END

*D_NET *32 0.000550203
*CONN
*P out_s[9] O
*I *36:X O *D sky130_fd_sc_hd__clkbuf_8
*CAP
1 out_s[9] 0.000129111
2 *36:X 0.000129111
3 out_s[10] out_s[9] 0
4 out_s[11] out_s[9] 0.000123225
5 out_s[8] out_s[9] 4.55329e-05
6 *38:A out_s[9] 0.000123225
*RES
1 *36:X out_s[9] 6.705 
*END
