*SPEF "ieee 1481-1999"
*DESIGN "buff_flash_clkrst"
*DATE "11:11:11 Fri 11 11, 1111"
*VENDOR "OpenRCX"
*PROGRAM "Parallel Extraction"
*VERSION "1.0"
*DESIGN_FLOW "NAME_SCOPE LOCAL" "PIN_CAP NONE"
*DIVIDER /
*DELIMITER :
*BUS_DELIMITER []
*T_UNIT 1 NS
*C_UNIT 1 PF
*R_UNIT 1 OHM
*L_UNIT 1 HENRY

*NAME_MAP
*3 in_e[0]
*4 in_e[10]
*5 in_e[11]
*6 in_e[1]
*7 in_e[2]
*8 in_e[3]
*9 in_e[4]
*10 in_e[5]
*11 in_e[6]
*12 in_e[7]
*13 in_e[8]
*14 in_e[9]
*15 in_w[0]
*16 in_w[1]
*17 in_w[2]
*18 out_e[0]
*19 out_e[1]
*20 out_e[2]
*21 out_w[0]
*22 out_w[10]
*23 out_w[11]
*24 out_w[1]
*25 out_w[2]
*26 out_w[3]
*27 out_w[4]
*28 out_w[5]
*29 out_w[6]
*30 out_w[7]
*31 out_w[8]
*32 out_w[9]
*33 ANTENNA_BUF\[0\]_A
*34 ANTENNA_BUF\[10\]_A
*35 ANTENNA_BUF\[11\]_A
*36 ANTENNA_BUF\[12\]_A
*37 ANTENNA_BUF\[13\]_A
*38 ANTENNA_BUF\[14\]_A
*39 ANTENNA_BUF\[1\]_A
*40 ANTENNA_BUF\[2\]_A
*41 ANTENNA_BUF\[3\]_A
*42 ANTENNA_BUF\[4\]_A
*43 ANTENNA_BUF\[5\]_A
*44 ANTENNA_BUF\[6\]_A
*45 ANTENNA_BUF\[7\]_A
*46 ANTENNA_BUF\[8\]_A
*47 ANTENNA_BUF\[9\]_A
*48 BUF\[0\]
*49 BUF\[10\]
*50 BUF\[11\]
*51 BUF\[12\]
*52 BUF\[13\]
*53 BUF\[14\]
*54 BUF\[1\]
*55 BUF\[2\]
*56 BUF\[3\]
*57 BUF\[4\]
*58 BUF\[5\]
*59 BUF\[6\]
*60 BUF\[7\]
*61 BUF\[8\]
*62 BUF\[9\]
*63 FILLER_0_19
*64 FILLER_0_23
*65 FILLER_0_26
*66 FILLER_0_29
*67 FILLER_0_3
*68 FILLER_0_33
*69 FILLER_0_39
*70 FILLER_0_54
*71 FILLER_0_57
*72 FILLER_0_7
*73 FILLER_0_70
*74 FILLER_0_74
*75 FILLER_1_17
*76 FILLER_1_3
*77 FILLER_1_32
*78 FILLER_1_47
*79 FILLER_1_51
*80 FILLER_1_54
*81 FILLER_1_57
*82 FILLER_1_70
*83 FILLER_1_74
*84 FILLER_2_11
*85 FILLER_2_26
*86 FILLER_2_29
*87 FILLER_2_3
*88 FILLER_2_33
*89 FILLER_2_52
*90 FILLER_2_67
*91 FILLER_2_73
*92 FILLER_3_27
*93 FILLER_3_3
*94 FILLER_3_42
*95 FILLER_3_48
*96 FILLER_3_54
*97 FILLER_3_57
*98 FILLER_3_70
*99 FILLER_3_74
*100 FILLER_3_8
*101 FILLER_4_19
*102 FILLER_4_25
*103 FILLER_4_29
*104 FILLER_4_3
*105 FILLER_4_33
*106 FILLER_4_39
*107 FILLER_4_42
*108 FILLER_4_48
*109 FILLER_4_54
*110 FILLER_4_57
*111 FILLER_4_7
*112 FILLER_4_70
*113 FILLER_4_74
*114 PHY_0
*115 PHY_1
*116 PHY_2
*117 PHY_3
*118 PHY_4
*119 PHY_5
*120 PHY_6
*121 PHY_7
*122 PHY_8
*123 PHY_9
*124 TAP_10
*125 TAP_11
*126 TAP_12
*127 TAP_13
*128 TAP_14
*129 TAP_15
*130 TAP_16

*PORTS
in_e[0] I
in_e[10] I
in_e[11] I
in_e[1] I
in_e[2] I
in_e[3] I
in_e[4] I
in_e[5] I
in_e[6] I
in_e[7] I
in_e[8] I
in_e[9] I
in_w[0] I
in_w[1] I
in_w[2] I
out_e[0] O
out_e[1] O
out_e[2] O
out_w[0] O
out_w[10] O
out_w[11] O
out_w[1] O
out_w[2] O
out_w[3] O
out_w[4] O
out_w[5] O
out_w[6] O
out_w[7] O
out_w[8] O
out_w[9] O

*D_NET *3 0.00171247
*CONN
*P in_e[0] I
*I *56:A I *D sky130_fd_sc_hd__clkbuf_8
*I *41:DIODE I *D sky130_fd_sc_hd__diode_2
*CAP
1 in_e[0] 0.000353455
2 *56:A 0
3 *41:DIODE 0.000258979
4 *3:10 0.000612433
5 *41:DIODE *57:A 9.24049e-05
6 *3:10 out_e[2] 0
7 *3:10 *57:A 0.000208491
8 *3:10 *6:5 0.00018671
9 *3:10 *7:7 0
*RES
1 in_e[0] *3:10 9.14 
2 *3:10 *41:DIODE 9.32 
3 *3:10 *56:A 1.6 
*END

*D_NET *4 0.00133117
*CONN
*P in_e[10] I
*I *52:A I *D sky130_fd_sc_hd__clkbuf_8
*I *37:DIODE I *D sky130_fd_sc_hd__diode_2
*CAP
1 in_e[10] 0.000342171
2 *52:A 0
3 *37:DIODE 0.000105843
4 *4:10 0.000448014
5 *37:DIODE *35:DIODE 0.000137064
6 *4:10 *35:DIODE 5.83121e-06
7 *4:10 *36:DIODE 3.9232e-05
8 *4:10 *51:A 2.75538e-05
9 *4:10 *5:12 0
10 *4:10 *14:8 0.000225465
*RES
1 in_e[10] *4:10 8.645 
2 *4:10 *37:DIODE 3.775 
3 *4:10 *52:A 1.6 
*END

*D_NET *5 0.00501059
*CONN
*P in_e[11] I
*I *53:A I *D sky130_fd_sc_hd__clkbuf_8
*I *38:DIODE I *D sky130_fd_sc_hd__diode_2
*CAP
1 in_e[11] 0.00140418
2 *53:A 0
3 *38:DIODE 0.000471488
4 *5:12 0.00187567
5 *38:DIODE *45:DIODE 1.52418e-05
6 *5:12 out_w[10] 0.000707215
7 *5:12 out_w[11] 0.000290826
8 *5:12 out_w[9] 0.000123592
9 *5:12 *51:A 0.000122373
10 *4:10 *5:12 0
*RES
1 in_e[11] *5:12 24.92 
2 *5:12 *38:DIODE 7.915 
3 *5:12 *53:A 1.6 
*END

*D_NET *6 0.00164626
*CONN
*P in_e[1] I
*I *42:DIODE I *D sky130_fd_sc_hd__diode_2
*I *57:A I *D sky130_fd_sc_hd__clkbuf_8
*CAP
1 in_e[1] 8.58228e-05
2 *42:DIODE 0.000237185
3 *57:A 0.00025049
4 *6:5 0.000573497
5 *57:A out_e[2] 0
6 *57:A out_w[1] 1.16578e-05
7 *57:A *7:7 0
8 *6:5 *7:7 0
9 *41:DIODE *57:A 9.24049e-05
10 *3:10 *57:A 0.000208491
11 *3:10 *6:5 0.00018671
*RES
1 in_e[1] *6:5 2.22 
2 *6:5 *57:A 9 
3 *6:5 *42:DIODE 6.12 
*END

*D_NET *7 0.00143146
*CONN
*P in_e[2] I
*I *58:A I *D sky130_fd_sc_hd__clkbuf_8
*I *43:DIODE I *D sky130_fd_sc_hd__diode_2
*CAP
1 in_e[2] 0.000535667
2 *58:A 0
3 *43:DIODE 9.35016e-05
4 *7:7 0.000629168
5 *43:DIODE out_w[1] 0
6 *43:DIODE out_w[3] 5.97443e-05
7 *7:7 out_w[1] 0
8 *7:7 out_w[3] 0.00011338
9 *7:7 *8:10 0
10 *57:A *7:7 0
11 *3:10 *7:7 0
12 *6:5 *7:7 0
*RES
1 in_e[2] *7:7 9.39 
2 *7:7 *43:DIODE 5.49 
3 *7:7 *58:A 3.6 
*END

*D_NET *8 0.00140258
*CONN
*P in_e[3] I
*I *44:DIODE I *D sky130_fd_sc_hd__diode_2
*I *59:A I *D sky130_fd_sc_hd__clkbuf_8
*CAP
1 in_e[3] 0.000367586
2 *44:DIODE 0.000132552
3 *59:A 0
4 *8:10 0.000500138
5 *8:10 *9:7 0.000402308
6 *7:7 *8:10 0
*RES
1 in_e[3] *8:10 9.14 
2 *8:10 *59:A 1.6 
3 *8:10 *44:DIODE 3.43 
*END

*D_NET *9 0.001774
*CONN
*P in_e[4] I
*I *60:A I *D sky130_fd_sc_hd__clkbuf_8
*I *45:DIODE I *D sky130_fd_sc_hd__diode_2
*CAP
1 in_e[4] 0.000424349
2 *60:A 0
3 *45:DIODE 0.000118926
4 *9:7 0.000543275
5 *45:DIODE out_w[3] 9.428e-05
6 *9:7 out_w[3] 0.00017562
7 *9:7 *10:10 0
8 *38:DIODE *45:DIODE 1.52418e-05
9 *8:10 *9:7 0.000402308
*RES
1 in_e[4] *9:7 9.735 
2 *9:7 *45:DIODE 5.94 
3 *9:7 *60:A 3.6 
*END

*D_NET *10 0.00149921
*CONN
*P in_e[5] I
*I *46:DIODE I *D sky130_fd_sc_hd__diode_2
*I *61:A I *D sky130_fd_sc_hd__clkbuf_8
*CAP
1 in_e[5] 0.000603035
2 *46:DIODE 8.85392e-05
3 *61:A 0
4 *10:10 0.000691574
5 *46:DIODE out_w[5] 0
6 *46:DIODE out_w[6] 9.71067e-05
7 *46:DIODE *49:A 8.08153e-06
8 *46:DIODE *11:12 1.08758e-05
9 *10:10 *11:12 0
10 *9:7 *10:10 0
*RES
1 in_e[5] *10:10 11.69 
2 *10:10 *61:A 1.6 
3 *10:10 *46:DIODE 7.43 
*END

*D_NET *11 0.00231686
*CONN
*P in_e[6] I
*I *47:DIODE I *D sky130_fd_sc_hd__diode_2
*I *62:A I *D sky130_fd_sc_hd__clkbuf_8
*CAP
1 in_e[6] 0.000691079
2 *47:DIODE 0.000128954
3 *62:A 2.09808e-05
4 *11:12 0.000841014
5 *11:12 out_w[6] 9.10513e-05
6 *11:12 *49:A 0.000166246
7 *11:12 *12:7 0.000366662
8 *46:DIODE *11:12 1.08758e-05
9 *10:10 *11:12 0
*RES
1 in_e[6] *11:12 14.99 
2 *11:12 *62:A 1.96 
3 *11:12 *47:DIODE 3.43 
*END

*D_NET *12 0.00180686
*CONN
*P in_e[7] I
*I *34:DIODE I *D sky130_fd_sc_hd__diode_2
*I *49:A I *D sky130_fd_sc_hd__clkbuf_8
*CAP
1 in_e[7] 0.000197958
2 *34:DIODE 0
3 *49:A 0.000362502
4 *12:7 0.00056046
5 *49:A out_w[6] 7.22509e-05
6 *49:A out_w[7] 7.27003e-05
7 *49:A out_w[8] 0
8 *49:A *50:A 0
9 *49:A *51:A 0
10 *12:7 *50:A 0
11 *12:7 *13:5 0
12 *46:DIODE *49:A 8.08153e-06
13 *11:12 *49:A 0.000166246
14 *11:12 *12:7 0.000366662
*RES
1 in_e[7] *12:7 4.71 
2 *12:7 *49:A 10.89 
3 *12:7 *34:DIODE 3.6 
*END

*D_NET *13 0.00177695
*CONN
*P in_e[8] I
*I *35:DIODE I *D sky130_fd_sc_hd__diode_2
*I *50:A I *D sky130_fd_sc_hd__clkbuf_8
*CAP
1 in_e[8] 0.000146697
2 *35:DIODE 0.000134137
3 *50:A 0.000228232
4 *13:5 0.000509065
5 *35:DIODE *36:DIODE 0.000458446
6 *50:A out_w[8] 5.83121e-06
7 *50:A *51:A 0.000142842
8 *13:5 *51:A 8.80293e-06
9 *13:5 *14:8 0
10 *37:DIODE *35:DIODE 0.000137064
11 *49:A *50:A 0
12 *4:10 *35:DIODE 5.83121e-06
13 *12:7 *50:A 0
14 *12:7 *13:5 0
*RES
1 in_e[8] *13:5 2.475 
2 *13:5 *50:A 7.44 
3 *13:5 *35:DIODE 7.845 
*END

*D_NET *14 0.00401854
*CONN
*P in_e[9] I
*I *51:A I *D sky130_fd_sc_hd__clkbuf_8
*I *36:DIODE I *D sky130_fd_sc_hd__diode_2
*CAP
1 in_e[9] 0.000146934
2 *51:A 0.000428034
3 *36:DIODE 0.000588832
4 *14:8 0.0011638
5 *51:A out_w[10] 0
6 *51:A out_w[11] 0.000121019
7 *51:A out_w[8] 0.000540764
8 *51:A out_w[9] 4.43871e-06
9 *35:DIODE *36:DIODE 0.000458446
10 *49:A *51:A 0
11 *50:A *51:A 0.000142842
12 *4:10 *36:DIODE 3.9232e-05
13 *4:10 *51:A 2.75538e-05
14 *4:10 *14:8 0.000225465
15 *5:12 *51:A 0.000122373
16 *13:5 *51:A 8.80293e-06
17 *13:5 *14:8 0
*RES
1 in_e[9] *14:8 5.015 
2 *14:8 *36:DIODE 8.95 
3 *14:8 *51:A 16.025 
*END

*D_NET *15 0.00162224
*CONN
*P in_w[0] I
*I *48:A I *D sky130_fd_sc_hd__clkbuf_8
*I *33:DIODE I *D sky130_fd_sc_hd__diode_2
*CAP
1 in_w[0] 0.000168058
2 *48:A 1.88743e-05
3 *33:DIODE 0.000203616
4 *15:8 0.000390549
5 *33:DIODE out_e[0] 0.000499096
6 *33:DIODE out_e[2] 0
7 *33:DIODE *40:DIODE 4.4073e-05
8 *33:DIODE *17:13 1.73506e-05
9 *48:A out_e[0] 3.77879e-05
10 *15:8 out_e[0] 4.82919e-05
11 *15:8 *16:16 0.000194547
*RES
1 in_w[0] *15:8 5.36 
2 *15:8 *33:DIODE 11.315 
3 *15:8 *48:A 2.05 
*END

*D_NET *16 0.00287332
*CONN
*P in_w[1] I
*I *39:DIODE I *D sky130_fd_sc_hd__diode_2
*I *54:A I *D sky130_fd_sc_hd__clkbuf_8
*CAP
1 in_w[1] 0.000818734
2 *39:DIODE 0.00013238
3 *54:A 0
4 *16:16 0.000951114
5 *16:16 out_e[0] 0.000725171
6 *16:16 out_e[1] 5.13714e-05
7 *16:16 out_w[0] 0
8 *16:16 *17:13 0
9 *15:8 *16:16 0.000194547
*RES
1 in_w[1] *16:16 19.535 
2 *16:16 *54:A 1.6 
3 *16:16 *39:DIODE 3.43 
*END

*D_NET *17 0.00123721
*CONN
*P in_w[2] I
*I *40:DIODE I *D sky130_fd_sc_hd__diode_2
*I *55:A I *D sky130_fd_sc_hd__clkbuf_8
*CAP
1 in_w[2] 0.000313193
2 *40:DIODE 6.69177e-05
3 *55:A 0.000118977
4 *17:13 0.000499088
5 *17:13 out_w[0] 0.000177613
6 *33:DIODE *40:DIODE 4.4073e-05
7 *33:DIODE *17:13 1.73506e-05
8 *16:16 *17:13 0
*RES
1 in_w[2] *17:13 6.315 
2 *17:13 *55:A 5.085 
3 *17:13 *40:DIODE 4.98 
*END

*D_NET *18 0.00268471
*CONN
*P out_e[0] O
*I *48:X O *D sky130_fd_sc_hd__clkbuf_8
*CAP
1 out_e[0] 0.000687183
2 *48:X 0.000687183
3 out_e[0] out_e[1] 0
4 out_e[0] out_e[2] 0
5 *33:DIODE out_e[0] 0.000499096
6 *48:A out_e[0] 3.77879e-05
7 *15:8 out_e[0] 4.82919e-05
8 *16:16 out_e[0] 0.000725171
*RES
1 *48:X out_e[0] 19.35 
*END

*D_NET *19 0.000633661
*CONN
*P out_e[1] O
*I *54:X O *D sky130_fd_sc_hd__clkbuf_8
*CAP
1 out_e[1] 0.000222808
2 *54:X 0.000222808
3 out_e[1] out_e[2] 0.000136673
4 out_e[0] out_e[1] 0
5 *16:16 out_e[1] 5.13714e-05
*RES
1 *54:X out_e[1] 8.265 
*END

*D_NET *20 0.00112598
*CONN
*P out_e[2] O
*I *55:X O *D sky130_fd_sc_hd__clkbuf_8
*CAP
1 out_e[2] 0.000403138
2 *55:X 0.000403138
3 out_e[2] out_w[0] 0.000183027
4 out_e[0] out_e[2] 0
5 out_e[1] out_e[2] 0.000136673
6 *33:DIODE out_e[2] 0
7 *57:A out_e[2] 0
8 *3:10 out_e[2] 0
*RES
1 *55:X out_e[2] 12.195 
*END

*D_NET *21 0.00136226
*CONN
*P out_w[0] O
*I *56:X O *D sky130_fd_sc_hd__clkbuf_8
*CAP
1 out_w[0] 0.000500808
2 *56:X 0.000500808
3 out_w[0] out_w[1] 0
4 out_w[0] out_w[2] 0
5 out_e[2] out_w[0] 0.000183027
6 *16:16 out_w[0] 0
7 *17:13 out_w[0] 0.000177613
*RES
1 *56:X out_w[0] 14.865 
*END

*D_NET *22 0.00180403
*CONN
*P out_w[10] O
*I *52:X O *D sky130_fd_sc_hd__clkbuf_8
*CAP
1 out_w[10] 0.000548409
2 *52:X 0.000548409
3 out_w[10] out_w[11] 0
4 out_w[10] out_w[9] 0
5 *51:A out_w[10] 0
6 *5:12 out_w[10] 0.000707215
*RES
1 *52:X out_w[10] 15.075 
*END

*D_NET *23 0.00156852
*CONN
*P out_w[11] O
*I *53:X O *D sky130_fd_sc_hd__clkbuf_8
*CAP
1 out_w[11] 0.000516539
2 *53:X 0.000516539
3 out_w[11] out_w[9] 0.000123592
4 out_w[10] out_w[11] 0
5 *51:A out_w[11] 0.000121019
6 *5:12 out_w[11] 0.000290826
*RES
1 *53:X out_w[11] 13.515 
*END

*D_NET *24 0.00121766
*CONN
*P out_w[1] O
*I *57:X O *D sky130_fd_sc_hd__clkbuf_8
*CAP
1 out_w[1] 0.000497013
2 *57:X 0.000497013
3 out_w[1] out_w[2] 0.000211976
4 out_w[0] out_w[1] 0
5 *43:DIODE out_w[1] 0
6 *57:A out_w[1] 1.16578e-05
7 *7:7 out_w[1] 0
*RES
1 *57:X out_w[1] 12.27 
*END

*D_NET *25 0.000906467
*CONN
*P out_w[2] O
*I *58:X O *D sky130_fd_sc_hd__clkbuf_8
*CAP
1 out_w[2] 0.000347245
2 *58:X 0.000347245
3 out_w[2] out_w[3] 0
4 out_w[0] out_w[2] 0
5 out_w[1] out_w[2] 0.000211976
*RES
1 *58:X out_w[2] 11.475 
*END

*D_NET *26 0.00119998
*CONN
*P out_w[3] O
*I *59:X O *D sky130_fd_sc_hd__clkbuf_8
*CAP
1 out_w[3] 0.00037848
2 *59:X 0.00037848
3 out_w[3] out_w[4] 0
4 out_w[2] out_w[3] 0
5 *43:DIODE out_w[3] 5.97443e-05
6 *45:DIODE out_w[3] 9.428e-05
7 *7:7 out_w[3] 0.00011338
8 *9:7 out_w[3] 0.00017562
*RES
1 *59:X out_w[3] 12.39 
*END

*D_NET *27 0.000811932
*CONN
*P out_w[4] O
*I *60:X O *D sky130_fd_sc_hd__clkbuf_8
*CAP
1 out_w[4] 0.000346428
2 *60:X 0.000346428
3 out_w[4] out_w[5] 0.000119076
4 out_w[3] out_w[4] 0
*RES
1 *60:X out_w[4] 9.9 
*END

*D_NET *28 0.000872265
*CONN
*P out_w[5] O
*I *61:X O *D sky130_fd_sc_hd__clkbuf_8
*CAP
1 out_w[5] 0.000376595
2 *61:X 0.000376595
3 out_w[5] out_w[6] 0
4 out_w[4] out_w[5] 0.000119076
5 *46:DIODE out_w[5] 0
*RES
1 *61:X out_w[5] 10.095 
*END

*D_NET *29 0.00148452
*CONN
*P out_w[6] O
*I *62:X O *D sky130_fd_sc_hd__clkbuf_8
*CAP
1 out_w[6] 0.000426347
2 *62:X 0.000426347
3 out_w[6] out_w[7] 0.00037142
4 out_w[6] out_w[8] 0
5 out_w[5] out_w[6] 0
6 *46:DIODE out_w[6] 9.71067e-05
7 *49:A out_w[6] 7.22509e-05
8 *11:12 out_w[6] 9.10513e-05
*RES
1 *62:X out_w[6] 13.95 
*END

*D_NET *30 0.00139751
*CONN
*P out_w[7] O
*I *49:X O *D sky130_fd_sc_hd__clkbuf_8
*CAP
1 out_w[7] 0.000476692
2 *49:X 0.000476692
3 out_w[7] out_w[8] 0
4 out_w[6] out_w[7] 0.00037142
5 *49:A out_w[7] 7.27003e-05
*RES
1 *49:X out_w[7] 12.45 
*END

*D_NET *31 0.00176113
*CONN
*P out_w[8] O
*I *50:X O *D sky130_fd_sc_hd__clkbuf_8
*CAP
1 out_w[8] 0.000585783
2 *50:X 0.000585783
3 out_w[8] out_w[9] 4.29653e-05
4 out_w[6] out_w[8] 0
5 out_w[7] out_w[8] 0
6 *49:A out_w[8] 0
7 *50:A out_w[8] 5.83121e-06
8 *51:A out_w[8] 0.000540764
*RES
1 *50:X out_w[8] 15.015 
*END

*D_NET *32 0.000546536
*CONN
*P out_w[9] O
*I *51:X O *D sky130_fd_sc_hd__clkbuf_8
*CAP
1 out_w[9] 0.000125973
2 *51:X 0.000125973
3 out_w[10] out_w[9] 0
4 out_w[11] out_w[9] 0.000123592
5 out_w[8] out_w[9] 4.29653e-05
6 *51:A out_w[9] 4.43871e-06
7 *5:12 out_w[9] 0.000123592
*RES
1 *51:X out_w[9] 6.705 
*END
