*SPEF "ieee 1481-1999"
*DESIGN "buff_flash_clkrst"
*DATE "11:11:11 Fri 11 11, 1111"
*VENDOR "OpenRCX"
*PROGRAM "Parallel Extraction"
*VERSION "1.0"
*DESIGN_FLOW "NAME_SCOPE LOCAL" "PIN_CAP NONE"
*DIVIDER /
*DELIMITER :
*BUS_DELIMITER []
*T_UNIT 1 NS
*C_UNIT 1 PF
*R_UNIT 1 OHM
*L_UNIT 1 HENRY

*NAME_MAP
*3 in_e[0]
*4 in_e[10]
*5 in_e[11]
*6 in_e[1]
*7 in_e[2]
*8 in_e[3]
*9 in_e[4]
*10 in_e[5]
*11 in_e[6]
*12 in_e[7]
*13 in_e[8]
*14 in_e[9]
*15 in_w[0]
*16 in_w[1]
*17 in_w[2]
*18 out_e[0]
*19 out_e[1]
*20 out_e[2]
*21 out_w[0]
*22 out_w[10]
*23 out_w[11]
*24 out_w[1]
*25 out_w[2]
*26 out_w[3]
*27 out_w[4]
*28 out_w[5]
*29 out_w[6]
*30 out_w[7]
*31 out_w[8]
*32 out_w[9]
*33 ANTENNA_BUF\[0\]_A
*34 ANTENNA_BUF\[10\]_A
*35 ANTENNA_BUF\[11\]_A
*36 ANTENNA_BUF\[12\]_A
*37 ANTENNA_BUF\[13\]_A
*38 ANTENNA_BUF\[14\]_A
*39 ANTENNA_BUF\[1\]_A
*40 ANTENNA_BUF\[2\]_A
*41 ANTENNA_BUF\[3\]_A
*42 ANTENNA_BUF\[4\]_A
*43 ANTENNA_BUF\[5\]_A
*44 ANTENNA_BUF\[6\]_A
*45 ANTENNA_BUF\[7\]_A
*46 ANTENNA_BUF\[8\]_A
*47 ANTENNA_BUF\[9\]_A
*48 BUF\[0\]
*49 BUF\[10\]
*50 BUF\[11\]
*51 BUF\[12\]
*52 BUF\[13\]
*53 BUF\[14\]
*54 BUF\[1\]
*55 BUF\[2\]
*56 BUF\[3\]
*57 BUF\[4\]
*58 BUF\[5\]
*59 BUF\[6\]
*60 BUF\[7\]
*61 BUF\[8\]
*62 BUF\[9\]
*63 FILLER_0_19
*64 FILLER_0_23
*65 FILLER_0_26
*66 FILLER_0_29
*67 FILLER_0_3
*68 FILLER_0_33
*69 FILLER_0_39
*70 FILLER_0_54
*71 FILLER_0_57
*72 FILLER_0_7
*73 FILLER_0_70
*74 FILLER_0_74
*75 FILLER_1_17
*76 FILLER_1_3
*77 FILLER_1_32
*78 FILLER_1_47
*79 FILLER_1_51
*80 FILLER_1_54
*81 FILLER_1_57
*82 FILLER_1_70
*83 FILLER_1_74
*84 FILLER_2_11
*85 FILLER_2_26
*86 FILLER_2_29
*87 FILLER_2_3
*88 FILLER_2_33
*89 FILLER_2_52
*90 FILLER_2_67
*91 FILLER_2_73
*92 FILLER_3_27
*93 FILLER_3_3
*94 FILLER_3_42
*95 FILLER_3_48
*96 FILLER_3_54
*97 FILLER_3_57
*98 FILLER_3_70
*99 FILLER_3_74
*100 FILLER_3_8
*101 FILLER_4_19
*102 FILLER_4_25
*103 FILLER_4_29
*104 FILLER_4_3
*105 FILLER_4_33
*106 FILLER_4_39
*107 FILLER_4_42
*108 FILLER_4_48
*109 FILLER_4_54
*110 FILLER_4_57
*111 FILLER_4_7
*112 FILLER_4_70
*113 FILLER_4_74
*114 PHY_0
*115 PHY_1
*116 PHY_2
*117 PHY_3
*118 PHY_4
*119 PHY_5
*120 PHY_6
*121 PHY_7
*122 PHY_8
*123 PHY_9
*124 TAP_10
*125 TAP_11
*126 TAP_12
*127 TAP_13
*128 TAP_14
*129 TAP_15
*130 TAP_16

*PORTS
in_e[0] I
in_e[10] I
in_e[11] I
in_e[1] I
in_e[2] I
in_e[3] I
in_e[4] I
in_e[5] I
in_e[6] I
in_e[7] I
in_e[8] I
in_e[9] I
in_w[0] I
in_w[1] I
in_w[2] I
out_e[0] O
out_e[1] O
out_e[2] O
out_w[0] O
out_w[10] O
out_w[11] O
out_w[1] O
out_w[2] O
out_w[3] O
out_w[4] O
out_w[5] O
out_w[6] O
out_w[7] O
out_w[8] O
out_w[9] O

*D_NET *3 0.0020674
*CONN
*P in_e[0] I
*I *56:A I *D sky130_fd_sc_hd__clkbuf_8
*I *41:DIODE I *D sky130_fd_sc_hd__diode_2
*CAP
1 in_e[0] 0.000430823
2 *56:A 0
3 *41:DIODE 0
4 *3:16 0.000315858
5 *3:10 0.000746681
6 *3:10 out_e[2] 0
7 *3:10 *57:A 0.000249918
8 *3:10 *6:5 0.000224227
9 *3:10 *7:7 0
10 *3:16 *57:A 9.98891e-05
*RES
1 in_e[0] *3:10 24.86 
2 *3:10 *3:16 35.1371 
3 *3:16 *41:DIODE 23 
4 *3:10 *56:A 23 
*END

*D_NET *4 0.0016143
*CONN
*P in_e[10] I
*I *52:A I *D sky130_fd_sc_hd__clkbuf_8
*I *37:DIODE I *D sky130_fd_sc_hd__diode_2
*CAP
1 in_e[10] 0.000432618
2 *52:A 0
3 *37:DIODE 0.000129225
4 *4:10 0.000561843
5 *37:DIODE *35:DIODE 0.000150051
6 *4:10 *35:DIODE 6.17437e-06
7 *4:10 *36:DIODE 4.03172e-05
8 *4:10 *5:12 0
9 *4:10 *14:8 0.000266865
10 *4:10 *14:20 2.72055e-05
*RES
1 in_e[10] *4:10 24.1764 
2 *4:10 *37:DIODE 26.0036 
3 *4:10 *52:A 23 
*END

*D_NET *5 0.00600546
*CONN
*P in_e[11] I
*I *53:A I *D sky130_fd_sc_hd__clkbuf_8
*I *38:DIODE I *D sky130_fd_sc_hd__diode_2
*CAP
1 in_e[11] 0.00171188
2 *53:A 0
3 *38:DIODE 0.000563152
4 *5:12 0.00227503
5 *38:DIODE *45:DIODE 1.41244e-05
6 *5:12 out_w[10] 4.19906e-05
7 *5:12 out_w[11] 1.97329e-05
8 *5:12 out_w[9] 0.000143543
9 *5:12 *14:20 0.000142018
10 *5:12 *22:8 0.000800779
11 *5:12 *23:7 0.000293216
12 *4:10 *5:12 0
*RES
1 in_e[11] *5:12 46.6514 
2 *5:12 *38:DIODE 31.7207 
3 *5:12 *53:A 23 
*END

*D_NET *6 0.00198593
*CONN
*P in_e[1] I
*I *42:DIODE I *D sky130_fd_sc_hd__diode_2
*I *57:A I *D sky130_fd_sc_hd__clkbuf_8
*CAP
1 in_e[1] 0.000106218
2 *42:DIODE 0.0002811
3 *57:A 0.000312012
4 *6:5 0.00069933
5 *57:A out_e[2] 0
6 *57:A out_w[1] 1.32314e-05
7 *57:A *7:7 0
8 *6:5 *7:7 0
9 *3:10 *57:A 0.000249918
10 *3:10 *6:5 0.000224227
11 *3:16 *57:A 9.98891e-05
*RES
1 in_e[1] *6:5 3.06571 
2 *6:5 *57:A 45.4571 
3 *6:5 *42:DIODE 41.48 
*END

*D_NET *7 0.0017009
*CONN
*P in_e[2] I
*I *58:A I *D sky130_fd_sc_hd__clkbuf_8
*I *43:DIODE I *D sky130_fd_sc_hd__diode_2
*CAP
1 in_e[2] 0.000653042
2 *58:A 0
3 *43:DIODE 0.000117858
4 *7:7 0.0007709
5 *43:DIODE out_w[1] 0
6 *43:DIODE out_w[3] 5.50587e-05
7 *7:7 out_w[1] 0
8 *7:7 out_w[3] 0.000104036
9 *7:7 *8:10 0
10 *57:A *7:7 0
11 *3:10 *7:7 0
12 *6:5 *7:7 0
*RES
1 in_e[2] *7:7 12.9671 
2 *7:7 *43:DIODE 40.61 
3 *7:7 *58:A 38 
*END

*D_NET *8 0.00166779
*CONN
*P in_e[3] I
*I *44:DIODE I *D sky130_fd_sc_hd__diode_2
*I *59:A I *D sky130_fd_sc_hd__clkbuf_8
*CAP
1 in_e[3] 0.000439767
2 *44:DIODE 0.000152616
3 *59:A 0
4 *8:10 0.000592384
5 *8:10 *9:7 0.000483019
6 *7:7 *8:10 0
*RES
1 in_e[3] *8:10 24.86 
2 *8:10 *59:A 23 
3 *8:10 *44:DIODE 25.5271 
*END

*D_NET *9 0.00210735
*CONN
*P in_e[4] I
*I *60:A I *D sky130_fd_sc_hd__clkbuf_8
*I *45:DIODE I *D sky130_fd_sc_hd__diode_2
*CAP
1 in_e[4] 0.00051101
2 *60:A 0
3 *45:DIODE 0.000147859
4 *9:7 0.000658868
5 *45:DIODE out_w[3] 0.000102365
6 *9:7 out_w[3] 0.000190102
7 *9:7 *10:10 0
8 *38:DIODE *45:DIODE 1.41244e-05
9 *8:10 *9:7 0.000483019
*RES
1 in_e[4] *9:7 13.4436 
2 *9:7 *45:DIODE 41.2314 
3 *9:7 *60:A 38 
*END

*D_NET *10 0.00176516
*CONN
*P in_e[5] I
*I *46:DIODE I *D sky130_fd_sc_hd__diode_2
*I *61:A I *D sky130_fd_sc_hd__clkbuf_8
*CAP
1 in_e[5] 0.000696968
2 *46:DIODE 0
3 *61:A 0
4 *10:21 0.000117357
5 *10:10 0.000814326
6 *10:10 *11:12 0
7 *10:21 out_w[5] 0
8 *10:21 *49:A 7.75329e-06
9 *10:21 *11:12 1.24376e-05
10 *10:21 *29:8 0.000116314
11 *9:7 *10:10 0
*RES
1 in_e[5] *10:10 28.3814 
2 *10:10 *61:A 23 
3 *10:10 *10:21 32.5271 
4 *10:21 *46:DIODE 23 
*END

*D_NET *11 0.00280831
*CONN
*P in_e[6] I
*I *47:DIODE I *D sky130_fd_sc_hd__diode_2
*I *62:A I *D sky130_fd_sc_hd__clkbuf_8
*CAP
1 in_e[6] 0.0008542
2 *47:DIODE 0.000154702
3 *62:A 2.30556e-05
4 *11:12 0.00103196
5 *11:12 *49:A 0.000193197
6 *11:12 *12:7 0.000439678
7 *11:12 *29:8 9.90847e-05
8 *10:10 *11:12 0
9 *10:21 *11:12 1.24376e-05
*RES
1 in_e[6] *11:12 32.9386 
2 *11:12 *62:A 23.4971 
3 *11:12 *47:DIODE 25.5271 
*END

*D_NET *12 0.00220518
*CONN
*P in_e[7] I
*I *34:DIODE I *D sky130_fd_sc_hd__diode_2
*I *49:A I *D sky130_fd_sc_hd__clkbuf_8
*CAP
1 in_e[7] 0.000250074
2 *34:DIODE 0
3 *49:A 0.000452529
4 *12:7 0.000702603
5 *49:A out_w[8] 0
6 *49:A *50:A 0
7 *49:A *14:20 0
8 *49:A *29:8 7.77547e-05
9 *49:A *30:7 8.15864e-05
10 *12:7 *50:A 0
11 *12:7 *13:5 0
12 *10:21 *49:A 7.75329e-06
13 *11:12 *49:A 0.000193197
14 *11:12 *12:7 0.000439678
*RES
1 in_e[7] *12:7 6.50429 
2 *12:7 *49:A 48.0671 
3 *12:7 *34:DIODE 38 
*END

*D_NET *13 0.0021476
*CONN
*P in_e[8] I
*I *35:DIODE I *D sky130_fd_sc_hd__diode_2
*I *50:A I *D sky130_fd_sc_hd__clkbuf_8
*CAP
1 in_e[8] 0.000179283
2 *35:DIODE 0.000170853
3 *50:A 0.000286446
4 *13:5 0.000636582
5 *35:DIODE *36:DIODE 0.000535343
6 *50:A *14:20 0.000168999
7 *50:A *31:7 6.17437e-06
8 *13:5 *14:8 0
9 *13:5 *14:20 7.69256e-06
10 *37:DIODE *35:DIODE 0.000150051
11 *49:A *50:A 0
12 *4:10 *35:DIODE 6.17437e-06
13 *12:7 *50:A 0
14 *12:7 *13:5 0
*RES
1 in_e[8] *13:5 3.41786 
2 *13:5 *50:A 43.3029 
3 *13:5 *35:DIODE 43.8621 
*END

*D_NET *14 0.0049086
*CONN
*P in_e[9] I
*I *51:A I *D sky130_fd_sc_hd__clkbuf_8
*I *36:DIODE I *D sky130_fd_sc_hd__diode_2
*CAP
1 in_e[9] 0.000182675
2 *51:A 0
3 *36:DIODE 0.000713578
4 *14:20 0.000559398
5 *14:8 0.00145565
6 *14:20 out_w[10] 0
7 *14:20 out_w[8] 0.000663301
8 *14:20 out_w[9] 4.6318e-06
9 *14:20 *22:8 0
10 *14:20 *23:7 0.000140927
11 *35:DIODE *36:DIODE 0.000535343
12 *49:A *14:20 0
13 *50:A *14:20 0.000168999
14 *4:10 *36:DIODE 4.03172e-05
15 *4:10 *14:8 0.000266865
16 *4:10 *14:20 2.72055e-05
17 *5:12 *14:20 0.000142018
18 *13:5 *14:8 0
19 *13:5 *14:20 7.69256e-06
*RES
1 in_e[9] *14:8 19.1636 
2 *14:8 *36:DIODE 33.15 
3 *14:8 *14:20 44.3964 
4 *14:20 *51:A 23 
*END

*D_NET *15 0.00200711
*CONN
*P in_w[0] I
*I *48:A I *D sky130_fd_sc_hd__clkbuf_8
*I *33:DIODE I *D sky130_fd_sc_hd__diode_2
*CAP
1 in_w[0] 0.000219511
2 *48:A 2.31866e-05
3 *33:DIODE 0
4 *15:13 0.00026515
5 *15:8 0.000507848
6 *48:A *18:7 4.40995e-05
7 *15:8 *16:16 0.00023344
8 *15:8 *18:7 5.50106e-05
9 *15:13 out_e[0] 0.000598634
10 *15:13 out_e[2] 0
11 *15:13 *40:DIODE 4.31366e-05
12 *15:13 *17:13 1.70886e-05
*RES
1 in_w[0] *15:8 19.64 
2 *15:8 *15:13 37.8921 
3 *15:13 *33:DIODE 23 
4 *15:8 *48:A 23.6214 
*END

*D_NET *16 0.00344094
*CONN
*P in_w[1] I
*I *39:DIODE I *D sky130_fd_sc_hd__diode_2
*I *54:A I *D sky130_fd_sc_hd__clkbuf_8
*CAP
1 in_w[1] 0.000986639
2 *39:DIODE 0.00015351
3 *54:A 0
4 *16:16 0.00114015
5 *16:16 out_e[0] 0.000870268
6 *16:16 out_e[1] 5.69373e-05
7 *16:16 out_w[0] 0
8 *16:16 *17:13 0
9 *15:8 *16:16 0.00023344
*RES
1 in_w[1] *16:16 39.215 
2 *16:16 *54:A 23 
3 *16:16 *39:DIODE 25.5271 
*END

*D_NET *17 0.00153955
*CONN
*P in_w[2] I
*I *40:DIODE I *D sky130_fd_sc_hd__diode_2
*I *55:A I *D sky130_fd_sc_hd__clkbuf_8
*CAP
1 in_w[2] 0.000399762
2 *40:DIODE 8.7362e-05
3 *55:A 0.000156481
4 *17:13 0.000643605
5 *17:13 out_w[0] 0.000192119
6 *15:13 *40:DIODE 4.31366e-05
7 *15:13 *17:13 1.70886e-05
8 *16:16 *17:13 0
*RES
1 in_w[2] *17:13 8.72071 
2 *17:13 *55:A 40.0507 
3 *17:13 *40:DIODE 39.9057 
*END

*D_NET *18 0.00324465
*CONN
*P out_e[0] O
*I *48:X O *D sky130_fd_sc_hd__clkbuf_8
*CAP
1 out_e[0] 0.000544747
2 *48:X 0.000293572
3 *18:7 0.000838319
4 out_e[0] out_e[1] 0
5 out_e[0] out_e[2] 0
6 *48:A *18:7 4.40995e-05
7 *15:8 *18:7 5.50106e-05
8 *15:13 out_e[0] 0.000598634
9 *16:16 out_e[0] 0.000870268
*RES
1 *48:X *18:7 42.9093 
2 *18:7 out_e[0] 16.8407 
*END

*D_NET *19 0.000749714
*CONN
*P out_e[1] O
*I *54:X O *D sky130_fd_sc_hd__clkbuf_8
*CAP
1 out_e[1] 0.000272134
2 *54:X 0.000272134
3 out_e[1] out_e[2] 0.000148508
4 out_e[0] out_e[1] 0
5 *16:16 out_e[1] 5.69373e-05
*RES
1 *54:X out_e[1] 44.4421 
*END

*D_NET *20 0.0013381
*CONN
*P out_e[2] O
*I *55:X O *D sky130_fd_sc_hd__clkbuf_8
*CAP
1 out_e[2] 0.00049547
2 *55:X 0.00049547
3 out_e[2] out_w[0] 0.000198654
4 out_e[0] out_e[2] 0
5 out_e[1] out_e[2] 0.000148508
6 *57:A out_e[2] 0
7 *3:10 out_e[2] 0
8 *15:13 out_e[2] 0
*RES
1 *55:X out_e[2] 49.8693 
*END

*D_NET *21 0.00160821
*CONN
*P out_w[0] O
*I *56:X O *D sky130_fd_sc_hd__clkbuf_8
*CAP
1 out_w[0] 0.000566387
2 *56:X 4.23312e-05
3 *21:7 0.000608718
4 out_w[0] out_w[1] 0
5 out_w[0] out_w[2] 0
6 out_e[2] out_w[0] 0.000198654
7 *16:16 out_w[0] 0
8 *17:13 out_w[0] 0.000192119
*RES
1 *56:X *21:7 38.6214 
2 *21:7 out_w[0] 14.935 
*END

*D_NET *22 0.00221223
*CONN
*P out_w[10] O
*I *52:X O *D sky130_fd_sc_hd__clkbuf_8
*CAP
1 out_w[10] 0.000224226
2 *52:X 0.000460506
3 *22:8 0.000684733
4 out_w[10] out_w[11] 0
5 out_w[10] out_w[9] 0
6 *5:12 out_w[10] 4.19906e-05
7 *5:12 *22:8 0.000800779
8 *14:20 out_w[10] 0
9 *14:20 *22:8 0
*RES
1 *52:X *22:8 49.6311 
2 *22:8 out_w[10] 4.21536 
*END

*D_NET *23 0.00187971
*CONN
*P out_w[11] O
*I *53:X O *D sky130_fd_sc_hd__clkbuf_8
*CAP
1 out_w[11] 0.000158479
2 *53:X 0.000482667
3 *23:7 0.000641146
4 *23:7 out_w[9] 0.000143543
5 out_w[10] out_w[11] 0
6 *5:12 out_w[11] 1.97329e-05
7 *5:12 *23:7 0.000293216
8 *14:20 *23:7 0.000140927
*RES
1 *53:X *23:7 48.6264 
2 *23:7 out_w[11] 3.06571 
*END

*D_NET *24 0.00145915
*CONN
*P out_w[1] O
*I *57:X O *D sky130_fd_sc_hd__clkbuf_8
*CAP
1 out_w[1] 0.000607943
2 *57:X 0.000607943
3 out_w[1] out_w[2] 0.000230031
4 out_w[0] out_w[1] 0
5 *43:DIODE out_w[1] 0
6 *57:A out_w[1] 1.32314e-05
7 *7:7 out_w[1] 0
*RES
1 *57:X out_w[1] 49.9729 
*END

*D_NET *25 0.00107789
*CONN
*P out_w[2] O
*I *58:X O *D sky130_fd_sc_hd__clkbuf_8
*CAP
1 out_w[2] 0.000423931
2 *58:X 0.000423931
3 out_w[2] out_w[3] 0
4 out_w[0] out_w[2] 0
5 out_w[1] out_w[2] 0.000230031
*RES
1 *58:X out_w[2] 48.875 
*END

*D_NET *26 0.00142174
*CONN
*P out_w[3] O
*I *59:X O *D sky130_fd_sc_hd__clkbuf_8
*CAP
1 out_w[3] 0.000442637
2 *59:X 4.24511e-05
3 *26:7 0.000485088
4 out_w[3] out_w[4] 0
5 out_w[2] out_w[3] 0
6 *43:DIODE out_w[3] 5.50587e-05
7 *45:DIODE out_w[3] 0.000102365
8 *7:7 out_w[3] 0.000104036
9 *9:7 out_w[3] 0.000190102
*RES
1 *59:X *26:7 38.6214 
2 *26:7 out_w[3] 11.5171 
*END

*D_NET *27 0.000964112
*CONN
*P out_w[4] O
*I *60:X O *D sky130_fd_sc_hd__clkbuf_8
*CAP
1 out_w[4] 0.000426691
2 *60:X 0.000426691
3 out_w[4] out_w[5] 0.000110729
4 out_w[3] out_w[4] 0
*RES
1 *60:X out_w[4] 46.7 
*END

*D_NET *28 0.00105057
*CONN
*P out_w[5] O
*I *61:X O *D sky130_fd_sc_hd__clkbuf_8
*CAP
1 out_w[5] 0.000469922
2 *61:X 0.000469922
3 out_w[5] out_w[6] 0
4 out_w[5] *29:8 0
5 out_w[4] out_w[5] 0.000110729
6 *10:21 out_w[5] 0
*RES
1 *61:X out_w[5] 46.9693 
*END

*D_NET *29 0.00180362
*CONN
*P out_w[6] O
*I *62:X O *D sky130_fd_sc_hd__clkbuf_8
*CAP
1 out_w[6] 0.000127429
2 *62:X 0.000405099
3 *29:8 0.000532528
4 *29:8 out_w[7] 0.00044541
5 *29:8 out_w[8] 0
6 out_w[5] out_w[6] 0
7 out_w[5] *29:8 0
8 *49:A *29:8 7.77547e-05
9 *10:21 *29:8 0.000116314
10 *11:12 *29:8 9.90847e-05
*RES
1 *62:X *29:8 48.4711 
2 *29:8 out_w[6] 3.82179 
*END

*D_NET *30 0.00170032
*CONN
*P out_w[7] O
*I *49:X O *D sky130_fd_sc_hd__clkbuf_8
*CAP
1 out_w[7] 0.000223333
2 *49:X 0.000363327
3 *30:7 0.00058666
4 out_w[7] out_w[8] 0
5 *49:A *30:7 8.15864e-05
6 *29:8 out_w[7] 0.00044541
*RES
1 *49:X *30:7 44.3386 
2 *30:7 out_w[7] 5.88286 
*END

*D_NET *31 0.00217915
*CONN
*P out_w[8] O
*I *50:X O *D sky130_fd_sc_hd__clkbuf_8
*CAP
1 out_w[8] 0.000541462
2 *50:X 0.000193107
3 *31:7 0.000734568
4 out_w[8] out_w[9] 4.05347e-05
5 out_w[7] out_w[8] 0
6 *49:A out_w[8] 0
7 *50:A *31:7 6.17437e-06
8 *14:20 out_w[8] 0.000663301
9 *29:8 out_w[8] 0
*RES
1 *50:X *31:7 41.0036 
2 *31:7 out_w[8] 12.76 
*END

*D_NET *32 0.000661458
*CONN
*P out_w[9] O
*I *51:X O *D sky130_fd_sc_hd__clkbuf_8
*CAP
1 out_w[9] 0.000164603
2 *51:X 0.000164603
3 out_w[10] out_w[9] 0
4 out_w[8] out_w[9] 4.05347e-05
5 *5:12 out_w[9] 0.000143543
6 *14:20 out_w[9] 4.6318e-06
7 *23:7 out_w[9] 0.000143543
*RES
1 *51:X out_w[9] 42.2879 
*END
