*SPEF "ieee 1481-1999"
*DESIGN "digital_pll"
*DATE "11:11:11 Fri 11 11, 1111"
*VENDOR "OpenRCX"
*PROGRAM "Parallel Extraction"
*VERSION "1.0"
*DESIGN_FLOW "NAME_SCOPE LOCAL" "PIN_CAP NONE"
*DIVIDER /
*DELIMITER :
*BUS_DELIMITER []
*T_UNIT 1 NS
*C_UNIT 1 PF
*R_UNIT 1 OHM
*L_UNIT 1 HENRY

*NAME_MAP
*3 clockp[0]
*4 clockp[1]
*5 dco
*6 div[0]
*7 div[1]
*8 div[2]
*9 div[3]
*10 div[4]
*11 enable
*12 ext_trim[0]
*13 ext_trim[10]
*14 ext_trim[11]
*15 ext_trim[12]
*16 ext_trim[13]
*17 ext_trim[14]
*18 ext_trim[15]
*19 ext_trim[16]
*20 ext_trim[17]
*21 ext_trim[18]
*22 ext_trim[19]
*23 ext_trim[1]
*24 ext_trim[20]
*25 ext_trim[21]
*26 ext_trim[22]
*27 ext_trim[23]
*28 ext_trim[24]
*29 ext_trim[25]
*30 ext_trim[2]
*31 ext_trim[3]
*32 ext_trim[4]
*33 ext_trim[5]
*34 ext_trim[6]
*35 ext_trim[7]
*36 ext_trim[8]
*37 ext_trim[9]
*38 osc
*39 resetb
*40 _000_
*41 _001_
*42 _002_
*43 _003_
*44 _004_
*45 _005_
*46 _006_
*47 _007_
*48 _008_
*49 _009_
*50 _010_
*51 _011_
*52 _012_
*53 _013_
*54 _014_
*55 _015_
*56 _016_
*57 _017_
*58 _018_
*59 _019_
*60 _020_
*61 _021_
*62 _022_
*63 _023_
*64 _024_
*65 _025_
*66 _026_
*67 _027_
*68 _028_
*69 _029_
*70 _030_
*71 _031_
*72 _032_
*73 _033_
*74 _034_
*75 _035_
*76 _036_
*77 _037_
*78 _038_
*79 _039_
*80 _040_
*81 _041_
*82 _042_
*83 _043_
*84 _044_
*85 _045_
*86 _046_
*87 _047_
*88 _048_
*89 _049_
*90 _050_
*91 _051_
*92 _052_
*93 _053_
*94 _054_
*95 _055_
*96 _056_
*97 _057_
*98 _058_
*99 _059_
*100 _060_
*101 _061_
*102 _062_
*103 _063_
*104 _064_
*105 _065_
*106 _066_
*107 _067_
*108 _068_
*109 _069_
*110 _070_
*111 _071_
*112 _072_
*113 _073_
*114 _074_
*115 _075_
*116 _076_
*117 _077_
*118 _078_
*119 _079_
*120 _080_
*121 _081_
*122 _082_
*123 _083_
*124 _084_
*125 _085_
*126 _086_
*127 _087_
*128 _088_
*129 _089_
*130 _090_
*131 _091_
*132 _092_
*133 _093_
*134 _094_
*135 _095_
*136 _096_
*137 _097_
*138 _098_
*139 _099_
*140 _100_
*141 _101_
*142 _102_
*143 _103_
*144 _104_
*145 _105_
*146 _106_
*147 _107_
*148 _108_
*149 _109_
*150 _110_
*151 _111_
*152 _112_
*153 _113_
*154 _114_
*155 _115_
*156 _116_
*157 _117_
*158 _118_
*159 _119_
*160 _120_
*161 _121_
*162 _122_
*163 _123_
*164 _124_
*165 _125_
*166 _126_
*167 _127_
*168 _128_
*169 _129_
*170 _130_
*171 _131_
*172 _132_
*173 _133_
*174 _134_
*175 _135_
*176 _136_
*177 _137_
*178 _138_
*179 _139_
*180 _140_
*181 _141_
*182 _142_
*183 _143_
*184 _144_
*185 _145_
*186 _146_
*187 _147_
*188 _148_
*189 _149_
*190 _150_
*191 _151_
*192 _152_
*193 _153_
*194 _154_
*195 _155_
*196 _156_
*197 _157_
*198 _158_
*199 _159_
*200 _160_
*201 _161_
*202 _162_
*203 _163_
*204 _164_
*205 _165_
*206 _166_
*207 _167_
*208 _168_
*209 _169_
*210 _170_
*211 _171_
*212 _172_
*213 _173_
*214 _174_
*215 _175_
*216 pll_control\.clock
*217 pll_control\.count0\[0\]
*218 pll_control\.count0\[1\]
*219 pll_control\.count0\[2\]
*220 pll_control\.count0\[3\]
*221 pll_control\.count0\[4\]
*222 pll_control\.count1\[0\]
*223 pll_control\.count1\[1\]
*224 pll_control\.count1\[2\]
*225 pll_control\.count1\[3\]
*226 pll_control\.count1\[4\]
*227 pll_control\.oscbuf\[0\]
*228 pll_control\.oscbuf\[1\]
*229 pll_control\.oscbuf\[2\]
*230 pll_control\.prep\[0\]
*231 pll_control\.prep\[1\]
*232 pll_control\.prep\[2\]
*233 pll_control\.tint\[0\]
*234 pll_control\.tint\[1\]
*235 pll_control\.tint\[2\]
*236 pll_control\.tint\[3\]
*237 pll_control\.tint\[4\]
*238 pll_control\.tval\[0\]
*239 pll_control\.tval\[1\]
*240 ringosc\.c\[0\]
*241 ringosc\.c\[1\]
*242 ringosc\.clockp\[1\]
*243 ringosc\.dstage\[0\]\.id\.d0
*244 ringosc\.dstage\[0\]\.id\.d1
*245 ringosc\.dstage\[0\]\.id\.d2
*246 ringosc\.dstage\[0\]\.id\.in
*247 ringosc\.dstage\[0\]\.id\.out
*248 ringosc\.dstage\[0\]\.id\.trim\[0\]
*249 ringosc\.dstage\[0\]\.id\.trim\[1\]
*250 ringosc\.dstage\[0\]\.id\.ts
*251 ringosc\.dstage\[10\]\.id\.d0
*252 ringosc\.dstage\[10\]\.id\.d1
*253 ringosc\.dstage\[10\]\.id\.d2
*254 ringosc\.dstage\[10\]\.id\.in
*255 ringosc\.dstage\[10\]\.id\.out
*256 ringosc\.dstage\[10\]\.id\.trim\[0\]
*257 ringosc\.dstage\[10\]\.id\.trim\[1\]
*258 ringosc\.dstage\[10\]\.id\.ts
*259 ringosc\.dstage\[11\]\.id\.d0
*260 ringosc\.dstage\[11\]\.id\.d1
*261 ringosc\.dstage\[11\]\.id\.d2
*262 ringosc\.dstage\[11\]\.id\.out
*263 ringosc\.dstage\[11\]\.id\.trim\[0\]
*264 ringosc\.dstage\[11\]\.id\.trim\[1\]
*265 ringosc\.dstage\[11\]\.id\.ts
*266 ringosc\.dstage\[1\]\.id\.d0
*267 ringosc\.dstage\[1\]\.id\.d1
*268 ringosc\.dstage\[1\]\.id\.d2
*269 ringosc\.dstage\[1\]\.id\.out
*270 ringosc\.dstage\[1\]\.id\.trim\[0\]
*271 ringosc\.dstage\[1\]\.id\.trim\[1\]
*272 ringosc\.dstage\[1\]\.id\.ts
*273 ringosc\.dstage\[2\]\.id\.d0
*274 ringosc\.dstage\[2\]\.id\.d1
*275 ringosc\.dstage\[2\]\.id\.d2
*276 ringosc\.dstage\[2\]\.id\.out
*277 ringosc\.dstage\[2\]\.id\.trim\[0\]
*278 ringosc\.dstage\[2\]\.id\.trim\[1\]
*279 ringosc\.dstage\[2\]\.id\.ts
*280 ringosc\.dstage\[3\]\.id\.d0
*281 ringosc\.dstage\[3\]\.id\.d1
*282 ringosc\.dstage\[3\]\.id\.d2
*283 ringosc\.dstage\[3\]\.id\.out
*284 ringosc\.dstage\[3\]\.id\.trim\[0\]
*285 ringosc\.dstage\[3\]\.id\.trim\[1\]
*286 ringosc\.dstage\[3\]\.id\.ts
*287 ringosc\.dstage\[4\]\.id\.d0
*288 ringosc\.dstage\[4\]\.id\.d1
*289 ringosc\.dstage\[4\]\.id\.d2
*290 ringosc\.dstage\[4\]\.id\.out
*291 ringosc\.dstage\[4\]\.id\.trim\[0\]
*292 ringosc\.dstage\[4\]\.id\.trim\[1\]
*293 ringosc\.dstage\[4\]\.id\.ts
*294 ringosc\.dstage\[5\]\.id\.d0
*295 ringosc\.dstage\[5\]\.id\.d1
*296 ringosc\.dstage\[5\]\.id\.d2
*297 ringosc\.dstage\[5\]\.id\.out
*298 ringosc\.dstage\[5\]\.id\.trim\[0\]
*299 ringosc\.dstage\[5\]\.id\.trim\[1\]
*300 ringosc\.dstage\[5\]\.id\.ts
*301 ringosc\.dstage\[6\]\.id\.d0
*302 ringosc\.dstage\[6\]\.id\.d1
*303 ringosc\.dstage\[6\]\.id\.d2
*304 ringosc\.dstage\[6\]\.id\.out
*305 ringosc\.dstage\[6\]\.id\.trim\[0\]
*306 ringosc\.dstage\[6\]\.id\.trim\[1\]
*307 ringosc\.dstage\[6\]\.id\.ts
*308 ringosc\.dstage\[7\]\.id\.d0
*309 ringosc\.dstage\[7\]\.id\.d1
*310 ringosc\.dstage\[7\]\.id\.d2
*311 ringosc\.dstage\[7\]\.id\.out
*312 ringosc\.dstage\[7\]\.id\.trim\[0\]
*313 ringosc\.dstage\[7\]\.id\.trim\[1\]
*314 ringosc\.dstage\[7\]\.id\.ts
*315 ringosc\.dstage\[8\]\.id\.d0
*316 ringosc\.dstage\[8\]\.id\.d1
*317 ringosc\.dstage\[8\]\.id\.d2
*318 ringosc\.dstage\[8\]\.id\.out
*319 ringosc\.dstage\[8\]\.id\.trim\[0\]
*320 ringosc\.dstage\[8\]\.id\.trim\[1\]
*321 ringosc\.dstage\[8\]\.id\.ts
*322 ringosc\.dstage\[9\]\.id\.d0
*323 ringosc\.dstage\[9\]\.id\.d1
*324 ringosc\.dstage\[9\]\.id\.d2
*325 ringosc\.dstage\[9\]\.id\.trim\[0\]
*326 ringosc\.dstage\[9\]\.id\.trim\[1\]
*327 ringosc\.dstage\[9\]\.id\.ts
*328 ringosc\.iss\.ctrl0
*329 ringosc\.iss\.d0
*330 ringosc\.iss\.d1
*331 ringosc\.iss\.d2
*332 ringosc\.iss\.one
*333 ringosc\.iss\.reset
*334 ringosc\.iss\.trim\[0\]
*335 ringosc\.iss\.trim\[1\]
*336 ANTENNA__207__A1
*337 ANTENNA__213__A1
*338 ANTENNA__213__B1
*339 ANTENNA__214__B1
*340 ANTENNA__215__B1
*341 ANTENNA__216__A
*342 ANTENNA__219__A
*343 ANTENNA__222__A1
*344 ANTENNA__222__B2
*345 ANTENNA__225__B1
*346 ANTENNA__235__A
*347 ANTENNA__288__A
*348 ANTENNA__289__A1
*349 ANTENNA__289__A2
*350 ANTENNA__293__A_N
*351 ANTENNA__295__A1
*352 ANTENNA__295__A2
*353 ANTENNA__296__B
*354 ANTENNA__299__A1
*355 ANTENNA__299__A2
*356 ANTENNA__300__A1
*357 ANTENNA__300__A2
*358 ANTENNA__302__A1
*359 ANTENNA__302__A2
*360 ANTENNA__305__A1
*361 ANTENNA__305__A2
*362 ANTENNA__306__A1
*363 ANTENNA__306__A2
*364 ANTENNA__309__A1
*365 ANTENNA__309__A2
*366 ANTENNA__310__A1
*367 ANTENNA__310__A2
*368 ANTENNA__312__A1
*369 ANTENNA__312__A2
*370 ANTENNA__313__A_N
*371 ANTENNA__313__B
*372 ANTENNA__314__A1
*373 ANTENNA__316__B1
*374 ANTENNA__316__B2
*375 ANTENNA__317__A1
*376 ANTENNA__317__A2
*377 ANTENNA__319__A1
*378 ANTENNA__319__A2
*379 ANTENNA__326__A1
*380 ANTENNA__326__A2
*381 ANTENNA__334__B1
*382 ANTENNA__334__B2
*383 ANTENNA__337__A1
*384 ANTENNA__337__A2
*385 ANTENNA__341__B1
*386 ANTENNA__341__B2
*387 ANTENNA__342__A1
*388 ANTENNA__342__A2
*389 ANTENNA__343__A1
*390 ANTENNA__343__A2
*391 ANTENNA__346__B1
*392 ANTENNA__346__B2
*393 ANTENNA__348__A1
*394 ANTENNA__348__A2
*395 ANTENNA__350__B1
*396 ANTENNA__350__B2
*397 ANTENNA__351__A1
*398 ANTENNA__351__A2
*399 ANTENNA__352__A_N
*400 ANTENNA__353__A1
*401 ANTENNA__353__A2
*402 ANTENNA__354__A1
*403 ANTENNA__354__A2
*404 ANTENNA__355__A
*405 ANTENNA__355__B
*406 ANTENNA__356__A
*407 ANTENNA__357__A
*408 ANTENNA__358__A
*409 ANTENNA__359__A
*410 ANTENNA__360__A
*411 ANTENNA__361__A
*412 ANTENNA__362__A
*413 ANTENNA__363__A
*414 ANTENNA__364__A
*415 ANTENNA__365__A
*416 ANTENNA__366__A
*417 ANTENNA__367__A
*418 ANTENNA__368__A
*419 ANTENNA__369__A
*420 ANTENNA__370__A
*421 ANTENNA__371__A
*422 ANTENNA__372__A
*423 ANTENNA__373__A
*424 ANTENNA__374__A
*425 ANTENNA__375__A
*426 ANTENNA__376__A
*427 ANTENNA__377__A
*428 ANTENNA__378__A
*429 ANTENNA__394__D
*430 FILLER_0_113
*431 FILLER_0_132
*432 FILLER_0_5
*433 FILLER_0_57
*434 FILLER_0_73
*435 FILLER_0_90
*436 FILLER_10_116
*437 FILLER_10_50
*438 FILLER_10_72
*439 FILLER_10_82
*440 FILLER_10_85
*441 FILLER_11_101
*442 FILLER_11_109
*443 FILLER_11_113
*444 FILLER_11_131
*445 FILLER_11_135
*446 FILLER_11_3
*447 FILLER_11_30
*448 FILLER_11_48
*449 FILLER_11_57
*450 FILLER_11_67
*451 FILLER_11_83
*452 FILLER_12_108
*453 FILLER_12_135
*454 FILLER_12_31
*455 FILLER_12_63
*456 FILLER_12_94
*457 FILLER_13_25
*458 FILLER_13_48
*459 FILLER_13_59
*460 FILLER_14_107
*461 FILLER_14_13
*462 FILLER_14_130
*463 FILLER_14_135
*464 FILLER_14_5
*465 FILLER_14_56
*466 FILLER_14_82
*467 FILLER_15_7
*468 FILLER_15_70
*469 FILLER_15_81
*470 FILLER_15_99
*471 FILLER_16_29
*472 FILLER_16_93
*473 FILLER_17_135
*474 FILLER_17_18
*475 FILLER_17_28
*476 FILLER_17_78
*477 FILLER_18_121
*478 FILLER_18_47
*479 FILLER_18_57
*480 FILLER_18_91
*481 FILLER_19_122
*482 FILLER_19_130
*483 FILLER_19_135
*484 FILLER_19_17
*485 FILLER_19_3
*486 FILLER_19_40
*487 FILLER_19_70
*488 FILLER_19_86
*489 FILLER_1_111
*490 FILLER_1_134
*491 FILLER_1_50
*492 FILLER_20_27
*493 FILLER_20_29
*494 FILLER_20_54
*495 FILLER_21_111
*496 FILLER_21_135
*497 FILLER_22_105
*498 FILLER_22_25
*499 FILLER_22_3
*500 FILLER_22_55
*501 FILLER_22_60
*502 FILLER_2_135
*503 FILLER_2_27
*504 FILLER_2_83
*505 FILLER_3_109
*506 FILLER_3_131
*507 FILLER_3_135
*508 FILLER_3_3
*509 FILLER_3_42
*510 FILLER_3_49
*511 FILLER_3_99
*512 FILLER_4_131
*513 FILLER_4_135
*514 FILLER_4_29
*515 FILLER_4_39
*516 FILLER_4_52
*517 FILLER_4_85
*518 FILLER_5_17
*519 FILLER_5_31
*520 FILLER_5_46
*521 FILLER_6_27
*522 FILLER_6_65
*523 FILLER_6_78
*524 FILLER_7_3
*525 FILLER_7_53
*526 FILLER_7_89
*527 FILLER_8_121
*528 FILLER_8_129
*529 FILLER_8_134
*530 FILLER_8_39
*531 FILLER_8_74
*532 FILLER_8_99
*533 FILLER_9_108
*534 FILLER_9_132
*535 FILLER_9_25
*536 PHY_0
*537 PHY_1
*538 PHY_10
*539 PHY_11
*540 PHY_12
*541 PHY_13
*542 PHY_14
*543 PHY_15
*544 PHY_16
*545 PHY_17
*546 PHY_18
*547 PHY_19
*548 PHY_2
*549 PHY_20
*550 PHY_21
*551 PHY_22
*552 PHY_23
*553 PHY_24
*554 PHY_25
*555 PHY_26
*556 PHY_27
*557 PHY_28
*558 PHY_29
*559 PHY_3
*560 PHY_30
*561 PHY_31
*562 PHY_32
*563 PHY_33
*564 PHY_34
*565 PHY_35
*566 PHY_36
*567 PHY_37
*568 PHY_38
*569 PHY_39
*570 PHY_4
*571 PHY_40
*572 PHY_41
*573 PHY_42
*574 PHY_43
*575 PHY_44
*576 PHY_45
*577 PHY_5
*578 PHY_6
*579 PHY_7
*580 PHY_8
*581 PHY_9
*582 TAP_46
*583 TAP_47
*584 TAP_48
*585 TAP_49
*586 TAP_50
*587 TAP_51
*588 TAP_52
*589 TAP_53
*590 TAP_54
*591 TAP_55
*592 TAP_56
*593 TAP_57
*594 TAP_58
*595 TAP_59
*596 TAP_60
*597 TAP_61
*598 TAP_62
*599 TAP_63
*600 TAP_64
*601 TAP_65
*602 TAP_66
*603 TAP_67
*604 TAP_68
*605 TAP_69
*606 TAP_70
*607 TAP_71
*608 TAP_72
*609 TAP_73
*610 TAP_74
*611 TAP_75
*612 TAP_76
*613 TAP_77
*614 TAP_78
*615 TAP_79
*616 TAP_80
*617 TAP_81
*618 TAP_82
*619 TAP_83
*620 TAP_84
*621 TAP_85
*622 TAP_86
*623 TAP_87
*624 TAP_88
*625 TAP_89
*626 TAP_90
*627 TAP_91
*628 TAP_92
*629 TAP_93
*630 TAP_94
*631 TAP_95
*632 _176_
*633 _177_
*634 _178_
*635 _179_
*636 _180_
*637 _181_
*638 _182_
*639 _183_
*640 _184_
*641 _185_
*642 _186_
*643 _187_
*644 _188_
*645 _189_
*646 _190_
*647 _191_
*648 _192_
*649 _193_
*650 _194_
*651 _195_
*652 _196_
*653 _197_
*654 _198_
*655 _199_
*656 _200_
*657 _201_
*658 _202_
*659 _203_
*660 _204_
*661 _205_
*662 _206_
*663 _207_
*664 _208_
*665 _209_
*666 _210_
*667 _211_
*668 _212_
*669 _213_
*670 _214_
*671 _215_
*672 _216_
*673 _217_
*674 _218_
*675 _219_
*676 _220_
*677 _221_
*678 _222_
*679 _223_
*680 _224_
*681 _225_
*682 _226_
*683 _227_
*684 _228_
*685 _229_
*686 _230_
*687 _231_
*688 _232_
*689 _233_
*690 _234_
*691 _235_
*692 _236_
*693 _237_
*694 _238_
*695 _239_
*696 _240_
*697 _241_
*698 _242_
*699 _243_
*700 _244_
*701 _245_
*702 _246_
*703 _247_
*704 _248_
*705 _249_
*706 _250_
*707 _251_
*708 _252_
*709 _253_
*710 _254_
*711 _255_
*712 _256_
*713 _257_
*714 _258_
*715 _259_
*716 _260_
*717 _261_
*718 _262_
*719 _263_
*720 _264_
*721 _265_
*722 _266_
*723 _267_
*724 _268_
*725 _269_
*726 _270_
*727 _271_
*728 _272_
*729 _273_
*730 _274_
*731 _275_
*732 _276_
*733 _277_
*734 _278_
*735 _279_
*736 _280_
*737 _281_
*738 _282_
*739 _283_
*740 _284_
*741 _285_
*742 _286_
*743 _287_
*744 _288_
*745 _289_
*746 _290_
*747 _291_
*748 _292_
*749 _293_
*750 _294_
*751 _295_
*752 _296_
*753 _297_
*754 _298_
*755 _299_
*756 _300_
*757 _301_
*758 _302_
*759 _303_
*760 _304_
*761 _305_
*762 _306_
*763 _307_
*764 _308_
*765 _309_
*766 _310_
*767 _311_
*768 _312_
*769 _313_
*770 _314_
*771 _315_
*772 _316_
*773 _317_
*774 _318_
*775 _319_
*776 _320_
*777 _321_
*778 _322_
*779 _323_
*780 _324_
*781 _325_
*782 _326_
*783 _327_
*784 _328_
*785 _329_
*786 _330_
*787 _331_
*788 _332_
*789 _333_
*790 _334_
*791 _335_
*792 _336_
*793 _337_
*794 _338_
*795 _339_
*796 _340_
*797 _341_
*798 _342_
*799 _343_
*800 _344_
*801 _345_
*802 _346_
*803 _347_
*804 _348_
*805 _349_
*806 _350_
*807 _351_
*808 _352_
*809 _353_
*810 _354_
*811 _355_
*812 _356_
*813 _357_
*814 _358_
*815 _359_
*816 _360_
*817 _361_
*818 _362_
*819 _363_
*820 _364_
*821 _365_
*822 _366_
*823 _367_
*824 _368_
*825 _369_
*826 _370_
*827 _371_
*828 _372_
*829 _373_
*830 _374_
*831 _375_
*832 _376_
*833 _377_
*834 _378_
*835 _379_
*836 _380_
*837 _381_
*838 _382_
*839 _383_
*840 _384_
*841 _385_
*842 _386_
*843 _387_
*844 _388_
*845 _389_
*846 _390_
*847 _391_
*848 _392_
*849 _393_
*850 _394_
*851 _395_
*852 _396_
*853 _397_
*854 _398_
*855 _399_
*856 _400_
*857 _401_
*858 clockp_buffer_0
*859 clockp_buffer_1
*860 ringosc\.dstage\[0\]\.id\.delaybuf0
*861 ringosc\.dstage\[0\]\.id\.delaybuf1
*862 ringosc\.dstage\[0\]\.id\.delayen0
*863 ringosc\.dstage\[0\]\.id\.delayen1
*864 ringosc\.dstage\[0\]\.id\.delayenb0
*865 ringosc\.dstage\[0\]\.id\.delayenb1
*866 ringosc\.dstage\[0\]\.id\.delayint0
*867 ringosc\.dstage\[10\]\.id\.delaybuf0
*868 ringosc\.dstage\[10\]\.id\.delaybuf1
*869 ringosc\.dstage\[10\]\.id\.delayen0
*870 ringosc\.dstage\[10\]\.id\.delayen1
*871 ringosc\.dstage\[10\]\.id\.delayenb0
*872 ringosc\.dstage\[10\]\.id\.delayenb1
*873 ringosc\.dstage\[10\]\.id\.delayint0
*874 ringosc\.dstage\[11\]\.id\.delaybuf0
*875 ringosc\.dstage\[11\]\.id\.delaybuf1
*876 ringosc\.dstage\[11\]\.id\.delayen0
*877 ringosc\.dstage\[11\]\.id\.delayen1
*878 ringosc\.dstage\[11\]\.id\.delayenb0
*879 ringosc\.dstage\[11\]\.id\.delayenb1
*880 ringosc\.dstage\[11\]\.id\.delayint0
*881 ringosc\.dstage\[1\]\.id\.delaybuf0
*882 ringosc\.dstage\[1\]\.id\.delaybuf1
*883 ringosc\.dstage\[1\]\.id\.delayen0
*884 ringosc\.dstage\[1\]\.id\.delayen1
*885 ringosc\.dstage\[1\]\.id\.delayenb0
*886 ringosc\.dstage\[1\]\.id\.delayenb1
*887 ringosc\.dstage\[1\]\.id\.delayint0
*888 ringosc\.dstage\[2\]\.id\.delaybuf0
*889 ringosc\.dstage\[2\]\.id\.delaybuf1
*890 ringosc\.dstage\[2\]\.id\.delayen0
*891 ringosc\.dstage\[2\]\.id\.delayen1
*892 ringosc\.dstage\[2\]\.id\.delayenb0
*893 ringosc\.dstage\[2\]\.id\.delayenb1
*894 ringosc\.dstage\[2\]\.id\.delayint0
*895 ringosc\.dstage\[3\]\.id\.delaybuf0
*896 ringosc\.dstage\[3\]\.id\.delaybuf1
*897 ringosc\.dstage\[3\]\.id\.delayen0
*898 ringosc\.dstage\[3\]\.id\.delayen1
*899 ringosc\.dstage\[3\]\.id\.delayenb0
*900 ringosc\.dstage\[3\]\.id\.delayenb1
*901 ringosc\.dstage\[3\]\.id\.delayint0
*902 ringosc\.dstage\[4\]\.id\.delaybuf0
*903 ringosc\.dstage\[4\]\.id\.delaybuf1
*904 ringosc\.dstage\[4\]\.id\.delayen0
*905 ringosc\.dstage\[4\]\.id\.delayen1
*906 ringosc\.dstage\[4\]\.id\.delayenb0
*907 ringosc\.dstage\[4\]\.id\.delayenb1
*908 ringosc\.dstage\[4\]\.id\.delayint0
*909 ringosc\.dstage\[5\]\.id\.delaybuf0
*910 ringosc\.dstage\[5\]\.id\.delaybuf1
*911 ringosc\.dstage\[5\]\.id\.delayen0
*912 ringosc\.dstage\[5\]\.id\.delayen1
*913 ringosc\.dstage\[5\]\.id\.delayenb0
*914 ringosc\.dstage\[5\]\.id\.delayenb1
*915 ringosc\.dstage\[5\]\.id\.delayint0
*916 ringosc\.dstage\[6\]\.id\.delaybuf0
*917 ringosc\.dstage\[6\]\.id\.delaybuf1
*918 ringosc\.dstage\[6\]\.id\.delayen0
*919 ringosc\.dstage\[6\]\.id\.delayen1
*920 ringosc\.dstage\[6\]\.id\.delayenb0
*921 ringosc\.dstage\[6\]\.id\.delayenb1
*922 ringosc\.dstage\[6\]\.id\.delayint0
*923 ringosc\.dstage\[7\]\.id\.delaybuf0
*924 ringosc\.dstage\[7\]\.id\.delaybuf1
*925 ringosc\.dstage\[7\]\.id\.delayen0
*926 ringosc\.dstage\[7\]\.id\.delayen1
*927 ringosc\.dstage\[7\]\.id\.delayenb0
*928 ringosc\.dstage\[7\]\.id\.delayenb1
*929 ringosc\.dstage\[7\]\.id\.delayint0
*930 ringosc\.dstage\[8\]\.id\.delaybuf0
*931 ringosc\.dstage\[8\]\.id\.delaybuf1
*932 ringosc\.dstage\[8\]\.id\.delayen0
*933 ringosc\.dstage\[8\]\.id\.delayen1
*934 ringosc\.dstage\[8\]\.id\.delayenb0
*935 ringosc\.dstage\[8\]\.id\.delayenb1
*936 ringosc\.dstage\[8\]\.id\.delayint0
*937 ringosc\.dstage\[9\]\.id\.delaybuf0
*938 ringosc\.dstage\[9\]\.id\.delaybuf1
*939 ringosc\.dstage\[9\]\.id\.delayen0
*940 ringosc\.dstage\[9\]\.id\.delayen1
*941 ringosc\.dstage\[9\]\.id\.delayenb0
*942 ringosc\.dstage\[9\]\.id\.delayenb1
*943 ringosc\.dstage\[9\]\.id\.delayint0
*944 ringosc\.ibufp00
*945 ringosc\.ibufp01
*946 ringosc\.ibufp10
*947 ringosc\.ibufp11
*948 ringosc\.iss\.const1
*949 ringosc\.iss\.ctrlen0
*950 ringosc\.iss\.delaybuf0
*951 ringosc\.iss\.delayen0
*952 ringosc\.iss\.delayen1
*953 ringosc\.iss\.delayenb0
*954 ringosc\.iss\.delayenb1
*955 ringosc\.iss\.delayint0
*956 ringosc\.iss\.reseten0

*PORTS
clockp[0] O
clockp[1] O
dco I
div[0] I
div[1] I
div[2] I
div[3] I
div[4] I
enable I
ext_trim[0] I
ext_trim[10] I
ext_trim[11] I
ext_trim[12] I
ext_trim[13] I
ext_trim[14] I
ext_trim[15] I
ext_trim[16] I
ext_trim[17] I
ext_trim[18] I
ext_trim[19] I
ext_trim[1] I
ext_trim[20] I
ext_trim[21] I
ext_trim[22] I
ext_trim[23] I
ext_trim[24] I
ext_trim[25] I
ext_trim[2] I
ext_trim[3] I
ext_trim[4] I
ext_trim[5] I
ext_trim[6] I
ext_trim[7] I
ext_trim[8] I
ext_trim[9] I
osc I
resetb I

*D_NET *3 0.00201365
*CONN
*P clockp[0] O
*I *858:X O *D sky130_fd_sc_hd__buf_16
*CAP
1 clockp[0] 0.000533105
2 *858:X 0.000415791
3 *3:8 0.000948896
4 clockp[0] clockp[1] 0
5 *3:8 *39:8 0
6 *3:8 *124:8 9.63918e-05
7 *3:8 *216:31 0
8 *3:8 *222:8 0
9 *3:8 *222:14 1.94693e-05
*RES
1 *858:X *3:8 45.9854 
2 *3:8 clockp[0] 10.0459 
*END

*D_NET *4 0.00748131
*CONN
*P clockp[1] O
*I *859:X O *D sky130_fd_sc_hd__buf_16
*CAP
1 clockp[1] 0.00200607
2 *859:X 0.000533508
3 *4:8 0.00253957
4 clockp[1] *667:C 3.20914e-05
5 clockp[1] *831:A 0.000136121
6 clockp[1] *5:27 0
7 clockp[1] *5:45 4.62034e-05
8 clockp[1] *5:54 0.000443899
9 clockp[1] *6:10 0
10 clockp[1] *93:6 0.00019747
11 clockp[1] *103:6 0.000119462
12 clockp[1] *105:30 4.18032e-05
13 clockp[1] *110:6 0.000168754
14 clockp[1] *112:6 5.7203e-05
15 clockp[1] *114:32 7.80954e-05
16 clockp[1] *121:34 0
17 clockp[1] *123:8 0
18 clockp[1] *124:8 0
19 clockp[1] *216:18 0
20 clockp[1] *216:31 0.000254313
21 clockp[1] *220:39 0.000224345
22 clockp[1] *222:8 2.70366e-05
23 clockp[1] *222:29 8.16253e-05
24 clockp[1] *333:134 3.93635e-05
25 *4:8 *644:B 1.35676e-05
26 *4:8 *862:TE 8.32732e-05
27 *4:8 *5:27 0
28 *4:8 *5:315 0
29 *4:8 *5:326 0
30 *4:8 *62:6 0.00023943
31 *4:8 *88:108 1.37246e-05
32 *4:8 *226:8 4.16952e-05
33 *4:8 *226:15 6.26866e-05
34 *4:8 *333:134 0
35 clockp[0] clockp[1] 0
*RES
1 *859:X *4:8 48.4504 
2 *4:8 clockp[1] 37.5548 
*END

*D_NET *5 0.096867
*CONN
*P dco I
*I *427:DIODE I *D sky130_fd_sc_hd__diode_2
*I *833:A I *D sky130_fd_sc_hd__nor2_2
*I *375:DIODE I *D sky130_fd_sc_hd__diode_2
*I *756:A1 I *D sky130_fd_sc_hd__a21o_2
*I *371:DIODE I *D sky130_fd_sc_hd__diode_2
*I *758:A1 I *D sky130_fd_sc_hd__a21o_2
*I *366:DIODE I *D sky130_fd_sc_hd__diode_2
*I *772:B2 I *D sky130_fd_sc_hd__a32o_2
*I *762:A1 I *D sky130_fd_sc_hd__a22o_2
*I *761:A1 I *D sky130_fd_sc_hd__a21o_2
*I *392:DIODE I *D sky130_fd_sc_hd__diode_2
*I *383:DIODE I *D sky130_fd_sc_hd__diode_2
*I *793:A1 I *D sky130_fd_sc_hd__a21o_2
*I *393:DIODE I *D sky130_fd_sc_hd__diode_2
*I *797:B2 I *D sky130_fd_sc_hd__a32o_2
*I *806:B2 I *D sky130_fd_sc_hd__a32o_2
*I *798:A1 I *D sky130_fd_sc_hd__a22o_2
*I *752:B I *D sky130_fd_sc_hd__nor2_2
*I *382:DIODE I *D sky130_fd_sc_hd__diode_2
*I *790:B2 I *D sky130_fd_sc_hd__a32o_2
*I *810:A1 I *D sky130_fd_sc_hd__a22o_2
*I *807:A1 I *D sky130_fd_sc_hd__a21o_2
*I *397:DIODE I *D sky130_fd_sc_hd__diode_2
*I *402:DIODE I *D sky130_fd_sc_hd__diode_2
*I *417:DIODE I *D sky130_fd_sc_hd__diode_2
*I *418:DIODE I *D sky130_fd_sc_hd__diode_2
*I *824:A I *D sky130_fd_sc_hd__nor2_2
*I *823:A I *D sky130_fd_sc_hd__nor2_2
*I *808:A_N I *D sky130_fd_sc_hd__and3b_2
*I *822:A I *D sky130_fd_sc_hd__nor2_2
*I *414:DIODE I *D sky130_fd_sc_hd__diode_2
*I *419:DIODE I *D sky130_fd_sc_hd__diode_2
*I *809:A1 I *D sky130_fd_sc_hd__a21o_2
*I *408:DIODE I *D sky130_fd_sc_hd__diode_2
*I *400:DIODE I *D sky130_fd_sc_hd__diode_2
*I *814:A I *D sky130_fd_sc_hd__nor2_2
*I *820:A I *D sky130_fd_sc_hd__nor2_2
*I *825:A I *D sky130_fd_sc_hd__nor2_2
*I *406:DIODE I *D sky130_fd_sc_hd__diode_2
*I *821:A I *D sky130_fd_sc_hd__nor2_2
*I *817:A I *D sky130_fd_sc_hd__nor2_2
*I *411:DIODE I *D sky130_fd_sc_hd__diode_2
*I *816:A I *D sky130_fd_sc_hd__nor2_2
*I *812:A I *D sky130_fd_sc_hd__nor2_2
*I *424:DIODE I *D sky130_fd_sc_hd__diode_2
*I *422:DIODE I *D sky130_fd_sc_hd__diode_2
*I *421:DIODE I *D sky130_fd_sc_hd__diode_2
*I *830:A I *D sky130_fd_sc_hd__nor2_2
*I *828:A I *D sky130_fd_sc_hd__nor2_2
*I *827:A I *D sky130_fd_sc_hd__nor2_2
*I *407:DIODE I *D sky130_fd_sc_hd__diode_2
*I *813:A I *D sky130_fd_sc_hd__nor2_2
*I *423:DIODE I *D sky130_fd_sc_hd__diode_2
*I *829:A I *D sky130_fd_sc_hd__nor2_2
*I *399:DIODE I *D sky130_fd_sc_hd__diode_2
*I *416:DIODE I *D sky130_fd_sc_hd__diode_2
*I *804:A1 I *D sky130_fd_sc_hd__a22o_2
*I *364:DIODE I *D sky130_fd_sc_hd__diode_2
*I *368:DIODE I *D sky130_fd_sc_hd__diode_2
*I *802:B2 I *D sky130_fd_sc_hd__a32o_2
*I *765:A1 I *D sky130_fd_sc_hd__a22o_2
*I *768:A1 I *D sky130_fd_sc_hd__a22o_2
*I *799:A1 I *D sky130_fd_sc_hd__a22o_2
*I *389:DIODE I *D sky130_fd_sc_hd__diode_2
*I *766:A1 I *D sky130_fd_sc_hd__a22o_2
*I *769:B I *D sky130_fd_sc_hd__nand2b_2
*I *362:DIODE I *D sky130_fd_sc_hd__diode_2
*I *360:DIODE I *D sky130_fd_sc_hd__diode_2
*I *374:DIODE I *D sky130_fd_sc_hd__diode_2
*I *356:DIODE I *D sky130_fd_sc_hd__diode_2
*I *358:DIODE I *D sky130_fd_sc_hd__diode_2
*I *755:A1 I *D sky130_fd_sc_hd__a22o_2
*I *354:DIODE I *D sky130_fd_sc_hd__diode_2
*I *751:A1 I *D sky130_fd_sc_hd__a21o_2
*I *745:A2 I *D sky130_fd_sc_hd__a21o_2
*I *351:DIODE I *D sky130_fd_sc_hd__diode_2
*I *349:DIODE I *D sky130_fd_sc_hd__diode_2
*I *834:A I *D sky130_fd_sc_hd__nor2_2
*I *420:DIODE I *D sky130_fd_sc_hd__diode_2
*I *782:A1 I *D sky130_fd_sc_hd__a22o_2
*I *744:A I *D sky130_fd_sc_hd__nor2_2
*I *347:DIODE I *D sky130_fd_sc_hd__diode_2
*I *749:A_N I *D sky130_fd_sc_hd__and2b_2
*I *353:DIODE I *D sky130_fd_sc_hd__diode_2
*I *387:DIODE I *D sky130_fd_sc_hd__diode_2
*I *350:DIODE I *D sky130_fd_sc_hd__diode_2
*I *396:DIODE I *D sky130_fd_sc_hd__diode_2
*I *386:DIODE I *D sky130_fd_sc_hd__diode_2
*I *379:DIODE I *D sky130_fd_sc_hd__diode_2
*I *770:A1 I *D sky130_fd_sc_hd__o31a_2
*I *372:DIODE I *D sky130_fd_sc_hd__diode_2
*I *773:A1 I *D sky130_fd_sc_hd__a22o_2
*I *775:A1 I *D sky130_fd_sc_hd__a22o_2
*I *377:DIODE I *D sky130_fd_sc_hd__diode_2
*I *826:A I *D sky130_fd_sc_hd__nor2_2
*I *819:A I *D sky130_fd_sc_hd__nor2_2
*I *818:A I *D sky130_fd_sc_hd__nor2_2
*I *410:DIODE I *D sky130_fd_sc_hd__diode_2
*I *815:A I *D sky130_fd_sc_hd__nor2_2
*I *412:DIODE I *D sky130_fd_sc_hd__diode_2
*I *413:DIODE I *D sky130_fd_sc_hd__diode_2
*I *415:DIODE I *D sky130_fd_sc_hd__diode_2
*I *409:DIODE I *D sky130_fd_sc_hd__diode_2
*I *425:DIODE I *D sky130_fd_sc_hd__diode_2
*I *831:A I *D sky130_fd_sc_hd__nor2_2
*I *426:DIODE I *D sky130_fd_sc_hd__diode_2
*I *832:A I *D sky130_fd_sc_hd__nor2_2
*I *428:DIODE I *D sky130_fd_sc_hd__diode_2
*CAP
1 dco 0.000555048
2 *427:DIODE 0
3 *833:A 1.31139e-05
4 *375:DIODE 0.000456364
5 *756:A1 9.07431e-05
6 *371:DIODE 0.00017766
7 *758:A1 0.000373367
8 *366:DIODE 0
9 *772:B2 0
10 *762:A1 0
11 *761:A1 0.000109613
12 *392:DIODE 0
13 *383:DIODE 6.78727e-05
14 *793:A1 0.00023245
15 *393:DIODE 0
16 *797:B2 0
17 *806:B2 0
18 *798:A1 0
19 *752:B 0
20 *382:DIODE 0
21 *790:B2 0
22 *810:A1 0
23 *807:A1 0.000268
24 *397:DIODE 9.57532e-05
25 *402:DIODE 0
26 *417:DIODE 0
27 *418:DIODE 6.53692e-05
28 *824:A 1.20778e-05
29 *823:A 1.75705e-05
30 *808:A_N 0
31 *822:A 0.000184066
32 *414:DIODE 6.58334e-05
33 *419:DIODE 0
34 *809:A1 0
35 *408:DIODE 8.39717e-05
36 *400:DIODE 0
37 *814:A 9.91871e-05
38 *820:A 6.50274e-05
39 *825:A 0
40 *406:DIODE 0
41 *821:A 7.70222e-05
42 *817:A 0
43 *411:DIODE 7.5203e-05
44 *816:A 0.000583225
45 *812:A 0
46 *424:DIODE 0.000144997
47 *422:DIODE 0
48 *421:DIODE 0
49 *830:A 5.20475e-05
50 *828:A 0
51 *827:A 6.01733e-05
52 *407:DIODE 0
53 *813:A 9.12415e-05
54 *423:DIODE 0.00020072
55 *829:A 3.37123e-05
56 *399:DIODE 0
57 *416:DIODE 0
58 *804:A1 0
59 *364:DIODE 0
60 *368:DIODE 0
61 *802:B2 0
62 *765:A1 2.34823e-05
63 *768:A1 0
64 *799:A1 0.000190509
65 *389:DIODE 0
66 *766:A1 3.39881e-05
67 *769:B 0
68 *362:DIODE 0.000133819
69 *360:DIODE 0.000473369
70 *374:DIODE 0.000306767
71 *356:DIODE 0
72 *358:DIODE 0
73 *755:A1 7.88085e-05
74 *354:DIODE 0.000138891
75 *751:A1 0.000226085
76 *745:A2 0
77 *351:DIODE 5.64163e-05
78 *349:DIODE 0
79 *834:A 0
80 *420:DIODE 0
81 *782:A1 0
82 *744:A 8.35287e-05
83 *347:DIODE 0
84 *749:A_N 0.000193534
85 *353:DIODE 1.31011e-05
86 *387:DIODE 0
87 *350:DIODE 0
88 *396:DIODE 4.09885e-05
89 *386:DIODE 0
90 *379:DIODE 0
91 *770:A1 0
92 *372:DIODE 0
93 *773:A1 5.13007e-05
94 *775:A1 0
95 *377:DIODE 0
96 *826:A 6.02775e-05
97 *819:A 0
98 *818:A 0
99 *410:DIODE 0
100 *815:A 0.000186526
101 *412:DIODE 0
102 *413:DIODE 3.33359e-05
103 *415:DIODE 0.000899557
104 *409:DIODE 0
105 *425:DIODE 4.55529e-05
106 *831:A 0.000263182
107 *426:DIODE 0
108 *832:A 0
109 *428:DIODE 0
110 *5:999 0.000748329
111 *5:989 0.000443153
112 *5:983 0.000577229
113 *5:977 0.000174775
114 *5:937 0.000197057
115 *5:922 0.000197362
116 *5:914 0.000255016
117 *5:912 0.000615592
118 *5:898 0.000421167
119 *5:892 0.000421167
120 *5:879 0.000268
121 *5:867 0.000183949
122 *5:848 0.000291457
123 *5:834 0.000432061
124 *5:831 0.00020048
125 *5:806 0.000136668
126 *5:800 0.000120142
127 *5:789 8.39717e-05
128 *5:778 0.000246699
129 *5:775 0.000480095
130 *5:765 0.000473346
131 *5:728 7.5203e-05
132 *5:713 0.00108227
133 *5:706 0.00113452
134 *5:679 0.000220899
135 *5:673 0.000153339
136 *5:665 0.000507248
137 *5:654 0.000121301
138 *5:649 0.000663556
139 *5:641 0.000440992
140 *5:636 0.000529074
141 *5:618 0.000753541
142 *5:613 0.00149561
143 *5:596 0.00037344
144 *5:594 0.000817997
145 *5:592 0.000124286
146 *5:590 0.00022723
147 *5:588 0.000363614
148 *5:585 0.000135932
149 *5:579 4.6313e-05
150 *5:573 0.00021603
151 *5:568 0.00048707
152 *5:566 0.00045733
153 *5:564 0.000352812
154 *5:556 0.000347691
155 *5:554 0.000442276
156 *5:550 0.000923718
157 *5:539 0.000468338
158 *5:526 0.000653385
159 *5:518 0.000568873
160 *5:517 0.00042339
161 *5:515 0.000288937
162 *5:509 0.000603158
163 *5:503 0.000642134
164 *5:497 0.000104765
165 *5:491 0.000515725
166 *5:483 0.000333521
167 *5:473 0.000208745
168 *5:459 0.000268195
169 *5:449 0.000213164
170 *5:445 0.000352442
171 *5:439 0.000633913
172 *5:433 0.000495546
173 *5:430 0.000286908
174 *5:427 0.000549728
175 *5:410 0.000528513
176 *5:408 0.000323185
177 *5:399 0.00075039
178 *5:395 0.000389729
179 *5:384 0.000306767
180 *5:382 0.000461411
181 *5:361 0.000414509
182 *5:354 0.000474985
183 *5:352 0.000722346
184 *5:349 0.000754824
185 *5:328 0.000282502
186 *5:326 0.000426941
187 *5:315 0.000390947
188 *5:312 0.000165722
189 *5:306 0.000217433
190 *5:294 0.000496458
191 *5:278 0.000673875
192 *5:272 0.00027572
193 *5:249 3.88521e-05
194 *5:244 7.60986e-05
195 *5:230 0.000283521
196 *5:225 0.000552744
197 *5:219 0.000463488
198 *5:212 0.000138661
199 *5:203 0.00027612
200 *5:195 0.000247255
201 *5:183 0.000416262
202 *5:180 0.000351016
203 *5:171 0.000272546
204 *5:168 0.000608013
205 *5:158 0.000735951
206 *5:149 0.000604226
207 *5:146 0.000634201
208 *5:119 0.000569623
209 *5:115 0.000588335
210 *5:106 0.000324436
211 *5:97 0.000260217
212 *5:94 0.00069449
213 *5:84 0.00165454
214 *5:69 4.55529e-05
215 *5:54 0.000735096
216 *5:51 0.00126853
217 *5:45 0.000427231
218 *5:27 0.00109235
219 *5:19 0.00105822
220 *5:15 0.000236603
221 *5:10 0.000636871
222 *351:DIODE *751:A2 5.41288e-05
223 *353:DIODE *142:21 0.000102389
224 *353:DIODE *237:78 8.88657e-05
225 *360:DIODE *897:Z 0.000267173
226 *360:DIODE *907:TE_B 8.91468e-07
227 *371:DIODE *37:8 1.01436e-05
228 *371:DIODE *291:11 7.88828e-05
229 *374:DIODE *363:DIODE 5.13694e-05
230 *374:DIODE *890:A 0.000100733
231 *375:DIODE *883:TE 0.000148206
232 *375:DIODE *178:85 0.000127546
233 *375:DIODE *269:10 0
234 *375:DIODE *270:8 2.49836e-05
235 *383:DIODE *929:A 9.67842e-05
236 *396:DIODE *202:11 5.3304e-05
237 *397:DIODE *131:51 9.08709e-06
238 *411:DIODE *737:A2 0.000168865
239 *411:DIODE *817:B 1.73222e-05
240 *411:DIODE *89:29 5.50049e-05
241 *411:DIODE *216:139 5.47983e-06
242 *411:DIODE *333:47 0.000124934
243 *411:DIODE *333:66 4.6595e-05
244 *413:DIODE *641:S 2.18506e-05
245 *413:DIODE *224:26 6.17437e-06