*SPEF "ieee 1481-1999"
*DESIGN "mprj_io_buffer"
*DATE "11:11:11 Fri 11 11, 1111"
*VENDOR "OpenRCX"
*PROGRAM "Parallel Extraction"
*VERSION "1.0"
*DESIGN_FLOW "NAME_SCOPE LOCAL" "PIN_CAP NONE"
*DIVIDER /
*DELIMITER :
*BUS_DELIMITER []
*T_UNIT 1 NS
*C_UNIT 1 PF
*R_UNIT 1 OHM
*L_UNIT 1 HENRY

*NAME_MAP
*3 mgmt_gpio_in[0]
*4 mgmt_gpio_in[10]
*5 mgmt_gpio_in[11]
*6 mgmt_gpio_in[12]
*7 mgmt_gpio_in[13]
*8 mgmt_gpio_in[14]
*9 mgmt_gpio_in[15]
*10 mgmt_gpio_in[16]
*11 mgmt_gpio_in[17]
*12 mgmt_gpio_in[18]
*13 mgmt_gpio_in[1]
*14 mgmt_gpio_in[2]
*15 mgmt_gpio_in[3]
*16 mgmt_gpio_in[4]
*17 mgmt_gpio_in[5]
*18 mgmt_gpio_in[6]
*19 mgmt_gpio_in[7]
*20 mgmt_gpio_in[8]
*21 mgmt_gpio_in[9]
*22 mgmt_gpio_in_buf[0]
*23 mgmt_gpio_in_buf[10]
*24 mgmt_gpio_in_buf[11]
*25 mgmt_gpio_in_buf[12]
*26 mgmt_gpio_in_buf[13]
*27 mgmt_gpio_in_buf[14]
*28 mgmt_gpio_in_buf[15]
*29 mgmt_gpio_in_buf[16]
*30 mgmt_gpio_in_buf[17]
*31 mgmt_gpio_in_buf[18]
*32 mgmt_gpio_in_buf[1]
*33 mgmt_gpio_in_buf[2]
*34 mgmt_gpio_in_buf[3]
*35 mgmt_gpio_in_buf[4]
*36 mgmt_gpio_in_buf[5]
*37 mgmt_gpio_in_buf[6]
*38 mgmt_gpio_in_buf[7]
*39 mgmt_gpio_in_buf[8]
*40 mgmt_gpio_in_buf[9]
*41 mgmt_gpio_oeb[0]
*42 mgmt_gpio_oeb[1]
*43 mgmt_gpio_oeb[2]
*44 mgmt_gpio_oeb_buf[0]
*45 mgmt_gpio_oeb_buf[1]
*46 mgmt_gpio_oeb_buf[2]
*47 mgmt_gpio_out[0]
*48 mgmt_gpio_out[10]
*49 mgmt_gpio_out[11]
*50 mgmt_gpio_out[12]
*51 mgmt_gpio_out[13]
*52 mgmt_gpio_out[14]
*53 mgmt_gpio_out[15]
*54 mgmt_gpio_out[16]
*55 mgmt_gpio_out[17]
*56 mgmt_gpio_out[18]
*57 mgmt_gpio_out[1]
*58 mgmt_gpio_out[2]
*59 mgmt_gpio_out[3]
*60 mgmt_gpio_out[4]
*61 mgmt_gpio_out[5]
*62 mgmt_gpio_out[6]
*63 mgmt_gpio_out[7]
*64 mgmt_gpio_out[8]
*65 mgmt_gpio_out[9]
*66 mgmt_gpio_out_buf[0]
*67 mgmt_gpio_out_buf[10]
*68 mgmt_gpio_out_buf[11]
*69 mgmt_gpio_out_buf[12]
*70 mgmt_gpio_out_buf[13]
*71 mgmt_gpio_out_buf[14]
*72 mgmt_gpio_out_buf[15]
*73 mgmt_gpio_out_buf[16]
*74 mgmt_gpio_out_buf[17]
*75 mgmt_gpio_out_buf[18]
*76 mgmt_gpio_out_buf[1]
*77 mgmt_gpio_out_buf[2]
*78 mgmt_gpio_out_buf[3]
*79 mgmt_gpio_out_buf[4]
*80 mgmt_gpio_out_buf[5]
*81 mgmt_gpio_out_buf[6]
*82 mgmt_gpio_out_buf[7]
*83 mgmt_gpio_out_buf[8]
*84 mgmt_gpio_out_buf[9]
*85 ANTENNA_BUF\[0\]_A
*86 ANTENNA_BUF\[10\]_A
*87 ANTENNA_BUF\[11\]_A
*88 ANTENNA_BUF\[12\]_A
*89 ANTENNA_BUF\[13\]_A
*90 ANTENNA_BUF\[14\]_A
*91 ANTENNA_BUF\[15\]_A
*92 ANTENNA_BUF\[16\]_A
*93 ANTENNA_BUF\[17\]_A
*94 ANTENNA_BUF\[18\]_A
*95 ANTENNA_BUF\[19\]_A
*96 ANTENNA_BUF\[1\]_A
*97 ANTENNA_BUF\[20\]_A
*98 ANTENNA_BUF\[21\]_A
*99 ANTENNA_BUF\[22\]_A
*100 ANTENNA_BUF\[23\]_A
*101 ANTENNA_BUF\[24\]_A
*102 ANTENNA_BUF\[25\]_A
*103 ANTENNA_BUF\[26\]_A
*104 ANTENNA_BUF\[27\]_A
*105 ANTENNA_BUF\[28\]_A
*106 ANTENNA_BUF\[29\]_A
*107 ANTENNA_BUF\[2\]_A
*108 ANTENNA_BUF\[30\]_A
*109 ANTENNA_BUF\[31\]_A
*110 ANTENNA_BUF\[32\]_A
*111 ANTENNA_BUF\[33\]_A
*112 ANTENNA_BUF\[34\]_A
*113 ANTENNA_BUF\[35\]_A
*114 ANTENNA_BUF\[36\]_A
*115 ANTENNA_BUF\[37\]_A
*116 ANTENNA_BUF\[38\]_A
*117 ANTENNA_BUF\[39\]_A
*118 ANTENNA_BUF\[3\]_A
*119 ANTENNA_BUF\[40\]_A
*120 ANTENNA_BUF\[4\]_A
*121 ANTENNA_BUF\[5\]_A
*122 ANTENNA_BUF\[6\]_A
*123 ANTENNA_BUF\[7\]_A
*124 ANTENNA_BUF\[8\]_A
*125 ANTENNA_BUF\[9\]_A
*126 BUF\[0\]
*127 BUF\[10\]
*128 BUF\[11\]
*129 BUF\[12\]
*130 BUF\[13\]
*131 BUF\[14\]
*132 BUF\[15\]
*133 BUF\[16\]
*134 BUF\[17\]
*135 BUF\[18\]
*136 BUF\[19\]
*137 BUF\[1\]
*138 BUF\[20\]
*139 BUF\[21\]
*140 BUF\[22\]
*141 BUF\[23\]
*142 BUF\[24\]
*143 BUF\[25\]
*144 BUF\[26\]
*145 BUF\[27\]
*146 BUF\[28\]
*147 BUF\[29\]
*148 BUF\[2\]
*149 BUF\[30\]
*150 BUF\[31\]
*151 BUF\[32\]
*152 BUF\[33\]
*153 BUF\[34\]
*154 BUF\[35\]
*155 BUF\[36\]
*156 BUF\[37\]
*157 BUF\[38\]
*158 BUF\[39\]
*159 BUF\[3\]
*160 BUF\[40\]
*161 BUF\[4\]
*162 BUF\[5\]
*163 BUF\[6\]
*164 BUF\[7\]
*165 BUF\[8\]
*166 BUF\[9\]
*167 FILLER_0_11
*168 FILLER_0_26
*169 FILLER_0_29
*170 FILLER_0_3
*171 FILLER_0_43
*172 FILLER_0_49
*173 FILLER_0_55
*174 FILLER_0_57
*175 FILLER_0_70
*176 FILLER_10_20
*177 FILLER_10_26
*178 FILLER_10_29
*179 FILLER_10_3
*180 FILLER_10_44
*181 FILLER_10_52
*182 FILLER_10_55
*183 FILLER_10_70
*184 FILLER_11_14
*185 FILLER_11_29
*186 FILLER_11_3
*187 FILLER_11_35
*188 FILLER_11_41
*189 FILLER_11_51
*190 FILLER_11_55
*191 FILLER_11_57
*192 FILLER_11_70
*193 FILLER_11_8
*194 FILLER_12_24
*195 FILLER_12_29
*196 FILLER_12_3
*197 FILLER_12_42
*198 FILLER_12_50
*199 FILLER_12_62
*200 FILLER_12_68
*201 FILLER_12_9
*202 FILLER_13_19
*203 FILLER_13_23
*204 FILLER_13_26
*205 FILLER_13_29
*206 FILLER_13_3
*207 FILLER_13_42
*208 FILLER_13_50
*209 FILLER_13_54
*210 FILLER_13_57
*211 FILLER_13_7
*212 FILLER_13_70
*213 FILLER_1_24
*214 FILLER_1_3
*215 FILLER_1_39
*216 FILLER_1_54
*217 FILLER_1_57
*218 FILLER_1_70
*219 FILLER_1_9
*220 FILLER_2_11
*221 FILLER_2_26
*222 FILLER_2_29
*223 FILLER_2_3
*224 FILLER_2_42
*225 FILLER_2_46
*226 FILLER_2_49
*227 FILLER_2_55
*228 FILLER_2_70
*229 FILLER_3_16
*230 FILLER_3_3
*231 FILLER_3_35
*232 FILLER_3_50
*233 FILLER_3_57
*234 FILLER_3_70
*235 FILLER_4_11
*236 FILLER_4_26
*237 FILLER_4_29
*238 FILLER_4_3
*239 FILLER_4_42
*240 FILLER_4_46
*241 FILLER_4_49
*242 FILLER_4_55
*243 FILLER_4_70
*244 FILLER_5_11
*245 FILLER_5_17
*246 FILLER_5_23
*247 FILLER_5_3
*248 FILLER_5_38
*249 FILLER_5_53
*250 FILLER_5_57
*251 FILLER_5_70
*252 FILLER_6_11
*253 FILLER_6_26
*254 FILLER_6_29
*255 FILLER_6_3
*256 FILLER_6_42
*257 FILLER_6_46
*258 FILLER_6_49
*259 FILLER_6_55
*260 FILLER_6_70
*261 FILLER_7_12
*262 FILLER_7_18
*263 FILLER_7_24
*264 FILLER_7_3
*265 FILLER_7_39
*266 FILLER_7_54
*267 FILLER_7_57
*268 FILLER_7_70
*269 FILLER_7_9
*270 FILLER_8_11
*271 FILLER_8_14
*272 FILLER_8_20
*273 FILLER_8_26
*274 FILLER_8_29
*275 FILLER_8_3
*276 FILLER_8_42
*277 FILLER_8_48
*278 FILLER_8_52
*279 FILLER_8_55
*280 FILLER_8_7
*281 FILLER_8_70
*282 FILLER_9_15
*283 FILLER_9_3
*284 FILLER_9_30
*285 FILLER_9_36
*286 FILLER_9_42
*287 FILLER_9_48
*288 FILLER_9_54
*289 FILLER_9_57
*290 FILLER_9_70
*291 FILLER_9_9
*292 PHY_0
*293 PHY_1
*294 PHY_10
*295 PHY_11
*296 PHY_12
*297 PHY_13
*298 PHY_14
*299 PHY_15
*300 PHY_16
*301 PHY_17
*302 PHY_18
*303 PHY_19
*304 PHY_2
*305 PHY_20
*306 PHY_21
*307 PHY_22
*308 PHY_23
*309 PHY_24
*310 PHY_25
*311 PHY_26
*312 PHY_27
*313 PHY_3
*314 PHY_4
*315 PHY_5
*316 PHY_6
*317 PHY_7
*318 PHY_8
*319 PHY_9
*320 TAP_28
*321 TAP_29
*322 TAP_30
*323 TAP_31
*324 TAP_32
*325 TAP_33
*326 TAP_34
*327 TAP_35
*328 TAP_36
*329 TAP_37
*330 TAP_38
*331 TAP_39
*332 TAP_40
*333 TAP_41
*334 TAP_42
*335 TAP_43

*PORTS
mgmt_gpio_in[0] I
mgmt_gpio_in[10] I
mgmt_gpio_in[11] I
mgmt_gpio_in[12] I
mgmt_gpio_in[13] I
mgmt_gpio_in[14] I
mgmt_gpio_in[15] I
mgmt_gpio_in[16] I
mgmt_gpio_in[17] I
mgmt_gpio_in[18] I
mgmt_gpio_in[1] I
mgmt_gpio_in[2] I
mgmt_gpio_in[3] I
mgmt_gpio_in[4] I
mgmt_gpio_in[5] I
mgmt_gpio_in[6] I
mgmt_gpio_in[7] I
mgmt_gpio_in[8] I
mgmt_gpio_in[9] I
mgmt_gpio_in_buf[0] O
mgmt_gpio_in_buf[10] O
mgmt_gpio_in_buf[11] O
mgmt_gpio_in_buf[12] O
mgmt_gpio_in_buf[13] O
mgmt_gpio_in_buf[14] O
mgmt_gpio_in_buf[15] O
mgmt_gpio_in_buf[16] O
mgmt_gpio_in_buf[17] O
mgmt_gpio_in_buf[18] O
mgmt_gpio_in_buf[1] O
mgmt_gpio_in_buf[2] O
mgmt_gpio_in_buf[3] O
mgmt_gpio_in_buf[4] O
mgmt_gpio_in_buf[5] O
mgmt_gpio_in_buf[6] O
mgmt_gpio_in_buf[7] O
mgmt_gpio_in_buf[8] O
mgmt_gpio_in_buf[9] O
mgmt_gpio_oeb[0] I
mgmt_gpio_oeb[1] I
mgmt_gpio_oeb[2] I
mgmt_gpio_oeb_buf[0] O
mgmt_gpio_oeb_buf[1] O
mgmt_gpio_oeb_buf[2] O
mgmt_gpio_out[0] I
mgmt_gpio_out[10] I
mgmt_gpio_out[11] I
mgmt_gpio_out[12] I
mgmt_gpio_out[13] I
mgmt_gpio_out[14] I
mgmt_gpio_out[15] I
mgmt_gpio_out[16] I
mgmt_gpio_out[17] I
mgmt_gpio_out[18] I
mgmt_gpio_out[1] I
mgmt_gpio_out[2] I
mgmt_gpio_out[3] I
mgmt_gpio_out[4] I
mgmt_gpio_out[5] I
mgmt_gpio_out[6] I
mgmt_gpio_out[7] I
mgmt_gpio_out[8] I
mgmt_gpio_out[9] I
mgmt_gpio_out_buf[0] O
mgmt_gpio_out_buf[10] O
mgmt_gpio_out_buf[11] O
mgmt_gpio_out_buf[12] O
mgmt_gpio_out_buf[13] O
mgmt_gpio_out_buf[14] O
mgmt_gpio_out_buf[15] O
mgmt_gpio_out_buf[16] O
mgmt_gpio_out_buf[17] O
mgmt_gpio_out_buf[18] O
mgmt_gpio_out_buf[1] O
mgmt_gpio_out_buf[2] O
mgmt_gpio_out_buf[3] O
mgmt_gpio_out_buf[4] O
mgmt_gpio_out_buf[5] O
mgmt_gpio_out_buf[6] O
mgmt_gpio_out_buf[7] O
mgmt_gpio_out_buf[8] O
mgmt_gpio_out_buf[9] O

*D_NET *3 0.0131077
*CONN
*P mgmt_gpio_in[0] I
*I *140:A I *D sky130_fd_sc_hd__clkbuf_8
*I *99:DIODE I *D sky130_fd_sc_hd__diode_2
*CAP
1 mgmt_gpio_in[0] 0.00114518
2 *140:A 0
3 *99:DIODE 0.000976299
4 *3:28 0.000417675
5 *3:17 0.00181239
6 *3:10 0.00194905
7 *3:9 0.00184046
8 *99:DIODE *163:A 0.000139586
9 *99:DIODE *64:20 0.000100061
10 *99:DIODE *81:7 7.45414e-05
11 *3:9 mgmt_gpio_out_buf[0] 0.000332269
12 *3:9 mgmt_gpio_out_buf[1] 0
13 *3:9 *13:13 0
14 *3:9 *53:14 0.000976185
15 *3:17 *144:A 0.000356252
16 *3:17 *48:11 0.000323822
17 *3:17 *68:16 0.000100543
18 *3:17 *80:11 0.00032159
19 *3:28 *13:28 0.000886349
20 *3:28 *41:11 9.84794e-05
21 *3:28 *51:12 7.87053e-05
22 *3:28 *52:8 0.00117826
*RES
1 mgmt_gpio_in[0] *3:9 42.405 
2 *3:9 *3:10 7.76786 
3 *3:10 *3:17 43.5679 
4 *3:17 *99:DIODE 37.9143 
5 *3:10 *3:28 46.7371 
6 *3:28 *140:A 23 
*END

*D_NET *4 0.00294867
*CONN
*P mgmt_gpio_in[10] I
*I *110:DIODE I *D sky130_fd_sc_hd__diode_2
*I *151:A I *D sky130_fd_sc_hd__clkbuf_8
*CAP
1 mgmt_gpio_in[10] 0.000554307
2 *110:DIODE 0
3 *151:A 0
4 *4:19 0.000101428
5 *4:8 0.000655735
6 *4:8 mgmt_gpio_out_buf[10] 0.000476517
7 *4:8 mgmt_gpio_out_buf[11] 0.000171435
8 *4:8 *21:14 0.000358906
9 *4:8 *24:7 0.000218166
10 *4:19 mgmt_gpio_out_buf[7] 0.000138718
11 *4:19 *19:10 0.000138718
12 *4:19 *21:14 9.41704e-05
13 *4:19 *24:7 4.05745e-05
*RES
1 mgmt_gpio_in[10] *4:8 30.4114 
2 *4:8 *151:A 23 
3 *4:8 *4:19 33.0036 
4 *4:19 *110:DIODE 23 
*END

*D_NET *5 0.00165848
*CONN
*P mgmt_gpio_in[11] I
*I *111:DIODE I *D sky130_fd_sc_hd__diode_2
*I *152:A I *D sky130_fd_sc_hd__clkbuf_8
*CAP
1 mgmt_gpio_in[11] 0.00029353
2 *111:DIODE 0.000122346
3 *152:A 0.000115123
4 *5:7 0.000530999
5 *152:A mgmt_gpio_out_buf[11] 8.89816e-05
6 *152:A *8:10 0
7 *5:7 mgmt_gpio_out_buf[11] 0.000493655
8 *5:7 mgmt_gpio_out_buf[12] 0
9 *5:7 *155:A 1.38508e-05
10 *5:7 *8:10 0
*RES
1 mgmt_gpio_in[11] *5:7 7.685 
2 *5:7 *152:A 40.2993 
3 *5:7 *111:DIODE 39.5743 
*END

*D_NET *6 0.00305205
*CONN
*P mgmt_gpio_in[12] I
*I *153:A I *D sky130_fd_sc_hd__clkbuf_8
*I *112:DIODE I *D sky130_fd_sc_hd__diode_2
*CAP
1 mgmt_gpio_in[12] 0.000354059
2 *153:A 0.000184087
3 *112:DIODE 0.00023186
4 *6:5 0.000770006
5 *112:DIODE mgmt_gpio_out_buf[12] 0.000139647
6 *112:DIODE mgmt_gpio_out_buf[13] 4.83778e-05
7 *6:5 mgmt_gpio_out_buf[12] 0.000999992
8 *6:5 mgmt_gpio_out_buf[13] 0.000324017
*RES
1 mgmt_gpio_in[12] *6:5 13.2779 
2 *6:5 *112:DIODE 41.9564 
3 *6:5 *153:A 41.0036 
*END

*D_NET *7 0.00332323
*CONN
*P mgmt_gpio_in[13] I
*I *113:DIODE I *D sky130_fd_sc_hd__diode_2
*I *154:A I *D sky130_fd_sc_hd__clkbuf_8
*CAP
1 mgmt_gpio_in[13] 0.00115413
2 *113:DIODE 0
3 *154:A 0.000173712
4 *7:10 0.00132784
5 *154:A *20:10 9.64943e-05
6 *154:A *27:7 0.000170212
7 *7:10 mgmt_gpio_out_buf[12] 0
8 *7:10 mgmt_gpio_out_buf[13] 0.000290983
9 *7:10 *27:7 0.000109851
*RES
1 mgmt_gpio_in[13] *7:10 31.9236 
2 *7:10 *154:A 26.9771 
3 *7:10 *113:DIODE 23 
*END

*D_NET *8 0.00149894
*CONN
*P mgmt_gpio_in[14] I
*I *155:A I *D sky130_fd_sc_hd__clkbuf_8
*I *114:DIODE I *D sky130_fd_sc_hd__diode_2
*CAP
1 mgmt_gpio_in[14] 0.000236807
2 *155:A 0.000132171
3 *114:DIODE 0
4 *8:10 0.000196376
5 *8:5 0.000565354
6 *155:A mgmt_gpio_out_buf[12] 0
7 *155:A mgmt_gpio_out_buf[14] 1.47988e-05
8 *155:A mgmt_gpio_out_buf[15] 3.67573e-06
9 *8:5 mgmt_gpio_out_buf[14] 8.78798e-05
10 *8:5 mgmt_gpio_out_buf[15] 8.14568e-05
11 *8:10 mgmt_gpio_out_buf[11] 0
12 *8:10 mgmt_gpio_out_buf[12] 0.000166573
13 *152:A *8:10 0
14 *5:7 *155:A 1.38508e-05
15 *5:7 *8:10 0
*RES
1 mgmt_gpio_in[14] *8:5 0.9296 
2 *8:5 *8:10 27.5468 
3 *8:10 *114:DIODE 23 
4 *8:5 *155:A 46.9009 
*END

*D_NET *9 0.00165254
*CONN
*P mgmt_gpio_in[15] I
*I *156:A I *D sky130_fd_sc_hd__clkbuf_8
*I *115:DIODE I *D sky130_fd_sc_hd__diode_2
*CAP
1 mgmt_gpio_in[15] 0.000474735
2 *156:A 0.000220257
3 *115:DIODE 0
4 *9:11 0.000694992
5 *9:11 mgmt_gpio_out_buf[11] 0
6 *9:11 mgmt_gpio_out_buf[12] 9.98109e-05
7 *9:11 mgmt_gpio_out_buf[15] 7.87398e-05
8 *9:11 mgmt_gpio_out_buf[16] 8.40031e-05
*RES
1 mgmt_gpio_in[15] *9:11 28.7012 
2 *9:11 *115:DIODE 23 
3 *9:11 *156:A 26.8529 
*END

*D_NET *10 0.00405834
*CONN
*P mgmt_gpio_in[16] I
*I *157:A I *D sky130_fd_sc_hd__clkbuf_8
*I *116:DIODE I *D sky130_fd_sc_hd__diode_2
*CAP
1 mgmt_gpio_in[16] 0.00123737
2 *157:A 0.000329305
3 *116:DIODE 0
4 *10:11 0.00156668
5 *157:A *25:8 0.000215263
6 *10:11 mgmt_gpio_out_buf[10] 0
7 *10:11 mgmt_gpio_out_buf[16] 0.000173923
8 *10:11 mgmt_gpio_out_buf[17] 8.0091e-05
9 *10:11 mgmt_gpio_out_buf[9] 0.000185284
10 *10:11 *11:11 0.000170927
11 *10:11 *25:8 5.12254e-05
12 *10:11 *73:14 4.82774e-05
*RES
1 mgmt_gpio_in[16] *10:11 31.6524 
2 *10:11 *116:DIODE 23 
3 *10:11 *157:A 27.93 
*END

*D_NET *11 0.0046552
*CONN
*P mgmt_gpio_in[17] I
*I *158:A I *D sky130_fd_sc_hd__clkbuf_8
*I *117:DIODE I *D sky130_fd_sc_hd__diode_2
*CAP
1 mgmt_gpio_in[17] 0.00141361
2 *158:A 5.68368e-05
3 *117:DIODE 0.000203142
4 *11:11 0.00167359
5 *11:11 mgmt_gpio_oeb_buf[0] 0.000207234
6 *11:11 mgmt_gpio_out_buf[10] 0
7 *11:11 mgmt_gpio_out_buf[11] 0
8 *11:11 mgmt_gpio_out_buf[18] 0.000160137
9 *11:11 mgmt_gpio_out_buf[9] 5.35872e-06
10 *11:11 *163:A 8.02348e-05
11 *11:11 *42:20 0
12 *11:11 *62:5 0.000541467
13 *11:11 *63:25 6.42902e-05
14 *11:11 *64:20 7.22066e-05
15 *11:11 *73:14 6.17437e-06
16 *10:11 *11:11 0.000170927
*RES
1 mgmt_gpio_in[17] *11:11 39.3137 
2 *11:11 *117:DIODE 25.5271 
3 *11:11 *158:A 24.2014 
*END

*D_NET *12 0.00890146
*CONN
*P mgmt_gpio_in[18] I
*I *119:DIODE I *D sky130_fd_sc_hd__diode_2
*I *160:A I *D sky130_fd_sc_hd__clkbuf_8
*CAP
1 mgmt_gpio_in[18] 0.000482295
2 *119:DIODE 0
3 *160:A 2.43873e-05
4 *12:41 0.000638182
5 *12:35 0.00113402
6 *12:28 0.00141785
7 *12:11 0.00142869
8 *12:11 mgmt_gpio_oeb_buf[1] 0.000105175
9 *12:11 mgmt_gpio_oeb_buf[2] 8.40031e-05
10 *12:11 *93:DIODE 7.82513e-05
11 *12:11 *57:7 0
12 *12:11 *59:12 0.000125375
13 *12:28 *93:DIODE 0.000131865
14 *12:28 *135:A 0
15 *12:28 *31:7 0.000359813
16 *12:28 *50:16 0.000238714
17 *12:28 *56:26 0
18 *12:28 *63:25 0
19 *12:28 *64:8 0.000131092
20 *12:28 *74:12 0.000150411
21 *12:35 mgmt_gpio_out_buf[7] 0.000219882
22 *12:35 *125:DIODE 2.81066e-05
23 *12:35 *43:23 7.93269e-05
24 *12:35 *48:11 0
25 *12:41 mgmt_gpio_in_buf[17] 0.000185686
26 *12:41 mgmt_gpio_out_buf[7] 0.00119782
27 *12:41 mgmt_gpio_out_buf[8] 8.3507e-05
28 *12:41 *19:10 0.000271906
29 *12:41 *56:32 0.000145926
30 *12:41 *64:8 0.000141879
31 *12:41 *74:12 1.72928e-05
*RES
1 mgmt_gpio_in[18] *12:11 29.5298 
2 *12:11 *160:A 23.4971 
3 *12:11 *12:28 48.6636 
4 *12:28 *12:35 37.0636 
5 *12:35 *12:41 48.995 
6 *12:41 *119:DIODE 23 
*END

*D_NET *13 0.0110172
*CONN
*P mgmt_gpio_in[1] I
*I *100:DIODE I *D sky130_fd_sc_hd__diode_2
*I *141:A I *D sky130_fd_sc_hd__clkbuf_8
*CAP
1 mgmt_gpio_in[1] 0.000602508
2 *100:DIODE 0.000563965
3 *141:A 0
4 *13:28 0.000822579
5 *13:19 0.00200596
6 *13:13 0.00122192
7 *100:DIODE *90:DIODE 0.000231039
8 *100:DIODE *14:10 0.000231039
9 *100:DIODE *54:28 4.50767e-05
10 *100:DIODE *73:14 0.000328304
11 *13:13 mgmt_gpio_in_buf[8] 0.00034544
12 *13:13 mgmt_gpio_out_buf[1] 0.00104945
13 *13:13 mgmt_gpio_out_buf[2] 5.41706e-05
14 *13:13 *71:16 0.000103089
15 *13:19 mgmt_gpio_out_buf[4] 0
16 *13:19 *91:DIODE 0.000479804
17 *13:19 *14:13 0
18 *13:19 *15:10 0.000106001
19 *13:19 *53:14 0.000163466
20 *13:28 mgmt_gpio_out_buf[3] 0.000260853
21 *13:28 mgmt_gpio_out_buf[4] 0
22 *13:28 *102:DIODE 0.000191157
23 *13:28 *14:13 0
24 *13:28 *15:10 0.000389224
25 *13:28 *15:17 0.000728597
26 *13:28 *51:12 0.000108349
27 *13:28 *52:8 4.38808e-05
28 *13:28 *55:8 5.50049e-05
29 *3:9 *13:13 0
30 *3:28 *13:28 0.000886349
*RES
1 mgmt_gpio_in[1] *13:13 46.3229 
2 *13:13 *13:19 38.845 
3 *13:19 *13:28 39.5464 
4 *13:28 *141:A 23 
5 *13:19 *100:DIODE 49.1029 
*END

*D_NET *14 0.00951511
*CONN
*P mgmt_gpio_in[2] I
*I *101:DIODE I *D sky130_fd_sc_hd__diode_2
*I *142:A I *D sky130_fd_sc_hd__clkbuf_8
*CAP
1 mgmt_gpio_in[2] 0.000993745
2 *101:DIODE 0.000457837
3 *142:A 0
4 *14:24 0.000773084
5 *14:20 0.00108728
6 *14:13 0.000878
7 *14:10 0.00109971
8 *101:DIODE *54:28 0.000262694
9 *101:DIODE *73:14 0.000132547
10 *14:10 mgmt_gpio_out_buf[2] 0
11 *14:10 mgmt_gpio_out_buf[3] 0.00111578
12 *14:10 *90:DIODE 2.02872e-05
13 *14:10 *19:21 0
14 *14:10 *52:8 6.70361e-05
15 *14:13 mgmt_gpio_out_buf[4] 0.000123041
16 *14:20 mgmt_gpio_out_buf[4] 0.000192077
17 *14:20 *146:A 1.24376e-05
18 *14:20 *18:16 2.42041e-05
19 *14:24 *102:DIODE 9.28888e-05
20 *14:24 *103:DIODE 0.00019747
21 *14:24 *16:5 0.00054991
22 *14:24 *31:15 0
23 *14:24 *43:23 0.000273511
24 *14:24 *49:21 3.71611e-05
25 *14:24 *50:8 7.10099e-05
26 *14:24 *57:14 0.00026506
27 *14:24 *68:16 0.000275432
28 *14:24 *73:8 0.000141888
29 *14:24 *79:7 0.000139982
30 *100:DIODE *14:10 0.000231039
31 *13:19 *14:13 0
32 *13:28 *14:13 0
*RES
1 mgmt_gpio_in[2] *14:10 35.0929 
2 *14:10 *14:13 16.9057 
3 *14:13 *14:20 34.1843 
4 *14:20 *14:24 36.1286 
5 *14:24 *142:A 23 
6 *14:13 *101:DIODE 43.8621 
*END

*D_NET *15 0.00749761
*CONN
*P mgmt_gpio_in[3] I
*I *143:A I *D sky130_fd_sc_hd__clkbuf_8
*I *102:DIODE I *D sky130_fd_sc_hd__diode_2
*CAP
1 mgmt_gpio_in[3] 0.000977756
2 *143:A 0
3 *102:DIODE 0.000478972
4 *15:17 0.000968352
5 *15:10 0.00146714
6 *102:DIODE *51:12 0.000188325
7 *102:DIODE *79:7 0.000116564
8 *15:10 mgmt_gpio_in_buf[18] 0
9 *15:10 mgmt_gpio_out_buf[3] 0.000309917
10 *15:10 mgmt_gpio_out_buf[4] 0
11 *15:10 *40:6 0.000872414
12 *15:10 *73:8 9.5877e-05
13 *15:17 mgmt_gpio_out_buf[4] 0
14 *15:17 *51:12 0.000514429
15 *13:19 *15:10 0.000106001
16 *13:28 *102:DIODE 0.000191157
17 *13:28 *15:10 0.000389224
18 *13:28 *15:17 0.000728597
19 *14:24 *102:DIODE 9.28888e-05
*RES
1 mgmt_gpio_in[3] *15:10 37.8686 
2 *15:10 *15:17 28.0086 
3 *15:17 *102:DIODE 45.9957 
4 *15:17 *143:A 38 
*END

*D_NET *16 0.00653241
*CONN
*P mgmt_gpio_in[4] I
*I *144:A I *D sky130_fd_sc_hd__clkbuf_8
*I *103:DIODE I *D sky130_fd_sc_hd__diode_2
*CAP
1 mgmt_gpio_in[4] 0.000793042
2 *144:A 0.0001703
3 *103:DIODE 0.000195775
4 *16:5 0.00115912
5 *103:DIODE mgmt_gpio_out_buf[4] 1.22803e-05
6 *103:DIODE *43:23 3.7122e-06
7 *103:DIODE *49:16 1.0119e-05
8 *103:DIODE *49:21 0.000169674
9 *103:DIODE *57:14 3.7122e-06
10 *16:5 mgmt_gpio_in_buf[16] 0.000125342
11 *16:5 mgmt_gpio_out_buf[4] 0.00194284
12 *16:5 mgmt_gpio_out_buf[5] 0
13 *16:5 *18:16 0.000770215
14 *16:5 *26:16 1.96907e-05
15 *16:5 *73:8 5.2949e-05
16 *3:17 *144:A 0.000356252
17 *14:24 *103:DIODE 0.00019747
18 *14:24 *16:5 0.00054991
*RES
1 mgmt_gpio_in[4] *16:5 26.6593 
2 *16:5 *103:DIODE 42.1843 
3 *16:5 *144:A 41.9564 
*END

*D_NET *17 0.00610936
*CONN
*P mgmt_gpio_in[5] I
*I *104:DIODE I *D sky130_fd_sc_hd__diode_2
*I *145:A I *D sky130_fd_sc_hd__clkbuf_8
*CAP
1 mgmt_gpio_in[5] 0.000795403
2 *104:DIODE 0
3 *145:A 0.000319669
4 *17:20 0.00104262
5 *17:15 0.00151835
6 *145:A *78:7 0.000525608
7 *17:15 mgmt_gpio_out_buf[5] 0.000208689
8 *17:15 mgmt_gpio_out_buf[6] 0.000202041
9 *17:15 mgmt_gpio_out_buf[7] 0
10 *17:15 *18:12 2.10797e-06
11 *17:15 *19:10 8.26807e-05
12 *17:15 *23:8 0.000118375
13 *17:15 *25:8 2.11066e-05
14 *17:15 *26:16 0
15 *17:15 *28:8 8.76184e-05
16 *17:15 *29:12 0.000207079
17 *17:15 *80:11 0.000281912
18 *17:20 mgmt_gpio_out_buf[6] 9.6946e-05
19 *17:20 mgmt_gpio_out_buf[7] 0
20 *17:20 *23:8 0.00021552
21 *17:20 *48:11 0.000318862
22 *17:20 *78:7 6.47751e-05
*RES
1 mgmt_gpio_in[5] *17:15 47.3689 
2 *17:15 *17:20 28.6611 
3 *17:20 *145:A 30.0636 
4 *17:20 *104:DIODE 23 
*END

*D_NET *18 0.00511711
*CONN
*P mgmt_gpio_in[6] I
*I *105:DIODE I *D sky130_fd_sc_hd__diode_2
*I *146:A I *D sky130_fd_sc_hd__clkbuf_8
*CAP
1 mgmt_gpio_in[6] 0.000501155
2 *105:DIODE 0
3 *146:A 0.000265759
4 *18:16 0.000783496
5 *18:12 0.00101889
6 *18:12 mgmt_gpio_in_buf[14] 7.95287e-05
7 *18:12 mgmt_gpio_in_buf[16] 0.000120904
8 *18:12 mgmt_gpio_out_buf[6] 0.000543129
9 *18:12 mgmt_gpio_out_buf[7] 0
10 *18:12 *150:A 0.000137651
11 *18:12 *21:14 0.000262907
12 *18:12 *28:8 2.11157e-05
13 *18:16 mgmt_gpio_in_buf[11] 0.000412833
14 *18:16 *26:16 2.87935e-05
15 *18:16 *31:15 0
16 *18:16 *73:8 0.000131982
17 *14:20 *146:A 1.24376e-05
18 *14:20 *18:16 2.42041e-05
19 *16:5 *18:16 0.000770215
20 *17:15 *18:12 2.10797e-06
*RES
1 mgmt_gpio_in[6] *18:12 42.8221 
2 *18:12 *18:16 27.2836 
3 *18:16 *146:A 27.205 
4 *18:16 *105:DIODE 23 
*END

*D_NET *19 0.00459544
*CONN
*P mgmt_gpio_in[7] I
*I *106:DIODE I *D sky130_fd_sc_hd__diode_2
*I *147:A I *D sky130_fd_sc_hd__clkbuf_8
*CAP
1 mgmt_gpio_in[7] 0.000993833
2 *106:DIODE 0
3 *147:A 0
4 *19:21 0.00032912
5 *19:10 0.00132295
6 *19:10 mgmt_gpio_in_buf[17] 0.000590033
7 *19:10 mgmt_gpio_out_buf[7] 0.000305622
8 *19:10 mgmt_gpio_out_buf[8] 8.54996e-05
9 *19:10 *20:10 2.10797e-06
10 *19:10 *21:20 4.96207e-05
11 *19:10 *28:8 0.000358584
12 *19:21 mgmt_gpio_out_buf[2] 6.47651e-05
13 *4:19 *19:10 0.000138718
14 *12:41 *19:10 0.000271906
15 *14:10 *19:21 0
16 *17:15 *19:10 8.26807e-05
*RES
1 mgmt_gpio_in[7] *19:10 38.7386 
2 *19:10 *147:A 23 
3 *19:10 *19:21 35.3857 
4 *19:21 *106:DIODE 23 
*END

*D_NET *20 0.00326956
*CONN
*P mgmt_gpio_in[8] I
*I *108:DIODE I *D sky130_fd_sc_hd__diode_2
*I *149:A I *D sky130_fd_sc_hd__clkbuf_8
*CAP
1 mgmt_gpio_in[8] 0.00106042
2 *108:DIODE 0
3 *149:A 0.000253729
4 *20:10 0.00131415
5 *20:10 mgmt_gpio_out_buf[14] 2.3066e-05
6 *20:10 mgmt_gpio_out_buf[8] 0.000285059
7 *20:10 mgmt_gpio_out_buf[9] 0
8 *20:10 *21:14 0
9 *20:10 *26:16 0.000116635
10 *20:10 *27:7 0.000117903
11 *154:A *20:10 9.64943e-05
12 *19:10 *20:10 2.10797e-06
*RES
1 mgmt_gpio_in[8] *20:10 30.9707 
2 *20:10 *149:A 26.9771 
3 *20:10 *108:DIODE 23 
*END

*D_NET *21 0.00428317
*CONN
*P mgmt_gpio_in[9] I
*I *150:A I *D sky130_fd_sc_hd__clkbuf_8
*I *109:DIODE I *D sky130_fd_sc_hd__diode_2
*CAP
1 mgmt_gpio_in[9] 0.000880257
2 *150:A 0.000107461
3 *109:DIODE 0
4 *21:20 0.000174547
5 *21:14 0.00116227
6 *150:A *24:7 4.05745e-05
7 *21:14 mgmt_gpio_out_buf[10] 0
8 *21:14 mgmt_gpio_out_buf[9] 0.00055
9 *21:14 *23:8 5.3304e-05
10 *21:14 *24:7 0.000221811
11 *21:20 *26:16 0.000131527
12 *21:20 *29:12 5.81639e-05
13 *4:8 *21:14 0.000358906
14 *4:19 *21:14 9.41704e-05
15 *18:12 *150:A 0.000137651
16 *18:12 *21:14 0.000262907
17 *19:10 *21:20 4.96207e-05
18 *20:10 *21:14 0
*RES
1 mgmt_gpio_in[9] *21:14 35.6107 
2 *21:14 *21:20 33.0036 
3 *21:20 *109:DIODE 23 
4 *21:14 *150:A 25.0507 
*END

*D_NET *22 0.00127841
*CONN
*P mgmt_gpio_in_buf[0] O
*I *140:X O *D sky130_fd_sc_hd__clkbuf_8
*CAP
1 mgmt_gpio_in_buf[0] 0.000458486
2 *140:X 0.000458486
3 mgmt_gpio_in_buf[0] mgmt_gpio_in_buf[1] 0.000103316
4 mgmt_gpio_in_buf[0] *43:23 0.000171728
5 mgmt_gpio_in_buf[0] *52:8 0
6 mgmt_gpio_in_buf[0] *53:10 8.63978e-05
7 mgmt_gpio_in_buf[0] *54:14 0
*RES
1 *140:X mgmt_gpio_in_buf[0] 49.8015 
*END

*D_NET *23 0.00619031
*CONN
*P mgmt_gpio_in_buf[10] O
*I *151:X O *D sky130_fd_sc_hd__clkbuf_8
*CAP
1 mgmt_gpio_in_buf[10] 0.00150542
2 *151:X 0.000291772
3 *23:8 0.00179719
4 mgmt_gpio_in_buf[10] mgmt_gpio_in_buf[11] 0.00112988
5 mgmt_gpio_in_buf[10] mgmt_gpio_in_buf[12] 6.77535e-05
6 mgmt_gpio_in_buf[10] mgmt_gpio_in_buf[9] 0.000211427
7 *23:8 mgmt_gpio_out_buf[6] 0.000616076
8 *23:8 *24:7 5.3304e-05
9 *23:8 *28:8 0.000130301
10 *17:15 *23:8 0.000118375
11 *17:20 *23:8 0.00021552
12 *21:14 *23:8 5.3304e-05
*RES
1 *151:X *23:8 47.0418 
2 *23:8 mgmt_gpio_in_buf[10] 11.6997 
*END

*D_NET *24 0.00727133
*CONN
*P mgmt_gpio_in_buf[11] O
*I *152:X O *D sky130_fd_sc_hd__clkbuf_8
*CAP
1 mgmt_gpio_in_buf[11] 0.00128872
2 *152:X 0.00103784
3 *24:7 0.00232656
4 mgmt_gpio_in_buf[11] mgmt_gpio_in_buf[12] 0.000328542
5 mgmt_gpio_in_buf[11] *26:16 0.000172524
6 mgmt_gpio_in_buf[11] *29:12 0
7 mgmt_gpio_in_buf[11] *31:15 0
8 mgmt_gpio_in_buf[11] *80:11 0
9 mgmt_gpio_in_buf[10] mgmt_gpio_in_buf[11] 0.00112988
10 *150:A *24:7 4.05745e-05
11 *4:8 *24:7 0.000218166
12 *4:19 *24:7 4.05745e-05
13 *18:16 mgmt_gpio_in_buf[11] 0.000412833
14 *21:14 *24:7 0.000221811
15 *23:8 *24:7 5.3304e-05
*RES
1 *152:X *24:7 36.5057 
2 *24:7 mgmt_gpio_in_buf[11] 33.8632 
*END

*D_NET *25 0.00554947
*CONN
*P mgmt_gpio_in_buf[12] O
*I *153:X O *D sky130_fd_sc_hd__clkbuf_8
*CAP
1 mgmt_gpio_in_buf[12] 0.00166386
2 *153:X 0.000467587
3 *25:8 0.00213144
4 mgmt_gpio_in_buf[12] mgmt_gpio_in_buf[13] 0.000294604
5 mgmt_gpio_in_buf[12] mgmt_gpio_in_buf[14] 0
6 *25:8 mgmt_gpio_out_buf[7] 0
7 *25:8 *72:7 0.00030809
8 mgmt_gpio_in_buf[10] mgmt_gpio_in_buf[12] 6.77535e-05
9 mgmt_gpio_in_buf[11] mgmt_gpio_in_buf[12] 0.000328542
10 *157:A *25:8 0.000215263
11 *10:11 *25:8 5.12254e-05
12 *17:15 *25:8 2.11066e-05
*RES
1 *153:X *25:8 47.9946 
2 *25:8 mgmt_gpio_in_buf[12] 11.5915 
*END

*D_NET *26 0.00476046
*CONN
*P mgmt_gpio_in_buf[13] O
*I *154:X O *D sky130_fd_sc_hd__clkbuf_8
*CAP
1 mgmt_gpio_in_buf[13] 0.00121678
2 *154:X 0.000548143
3 *26:16 0.00176493
4 mgmt_gpio_in_buf[13] mgmt_gpio_in_buf[14] 0.000230257
5 *26:16 mgmt_gpio_in_buf[16] 0.000127981
6 *26:16 mgmt_gpio_out_buf[5] 1.95956e-05
7 *26:16 *29:12 1.85378e-05
8 *26:16 *80:11 7.04672e-05
9 mgmt_gpio_in_buf[11] *26:16 0.000172524
10 mgmt_gpio_in_buf[12] mgmt_gpio_in_buf[13] 0.000294604
11 *16:5 *26:16 1.96907e-05
12 *17:15 *26:16 0
13 *18:16 *26:16 2.87935e-05
14 *20:10 *26:16 0.000116635
15 *21:20 *26:16 0.000131527
*RES
1 *154:X *26:16 49.4446 
2 *26:16 mgmt_gpio_in_buf[13] 10.9717 
*END

*D_NET *27 0.00653006
*CONN
*P mgmt_gpio_in_buf[14] O
*I *155:X O *D sky130_fd_sc_hd__clkbuf_8
*CAP
1 mgmt_gpio_in_buf[14] 0.00154264
2 *155:X 0.000519112
3 *27:7 0.00206175
4 mgmt_gpio_in_buf[14] mgmt_gpio_in_buf[15] 0.00163805
5 mgmt_gpio_in_buf[14] mgmt_gpio_out_buf[7] 0
6 mgmt_gpio_in_buf[14] *28:8 6.07632e-05
7 mgmt_gpio_in_buf[12] mgmt_gpio_in_buf[14] 0
8 mgmt_gpio_in_buf[13] mgmt_gpio_in_buf[14] 0.000230257
9 *154:A *27:7 0.000170212
10 *7:10 *27:7 0.000109851
11 *18:12 mgmt_gpio_in_buf[14] 7.95287e-05
12 *20:10 *27:7 0.000117903
*RES
1 *155:X *27:7 48.6264 
2 *27:7 mgmt_gpio_in_buf[14] 15.1217 
*END

*D_NET *28 0.00596631
*CONN
*P mgmt_gpio_in_buf[15] O
*I *156:X O *D sky130_fd_sc_hd__clkbuf_8
*CAP
1 mgmt_gpio_in_buf[15] 0.00113449
2 *156:X 0.000520094
3 *28:8 0.00165458
4 mgmt_gpio_in_buf[15] mgmt_gpio_in_buf[16] 0.000347531
5 mgmt_gpio_in_buf[15] mgmt_gpio_in_buf[17] 0
6 *28:8 mgmt_gpio_out_buf[6] 1.31913e-05
7 *28:8 mgmt_gpio_out_buf[7] 0
8 mgmt_gpio_in_buf[14] mgmt_gpio_in_buf[15] 0.00163805
9 mgmt_gpio_in_buf[14] *28:8 6.07632e-05
10 *17:15 *28:8 8.76184e-05
11 *18:12 *28:8 2.11157e-05
12 *19:10 *28:8 0.000358584
13 *23:8 *28:8 0.000130301
*RES
1 *156:X *28:8 47.1246 
2 *28:8 mgmt_gpio_in_buf[15] 11.4197 
*END

*D_NET *29 0.00474023
*CONN
*P mgmt_gpio_in_buf[16] O
*I *157:X O *D sky130_fd_sc_hd__clkbuf_8
*CAP
1 mgmt_gpio_in_buf[16] 0.00120463
2 *157:X 0.000375552
3 *29:12 0.00158018
4 mgmt_gpio_in_buf[16] mgmt_gpio_in_buf[17] 0.000228562
5 *29:12 *31:15 3.7122e-06
6 *29:12 *72:7 9.41704e-05
7 *29:12 *80:11 0.000247886
8 mgmt_gpio_in_buf[11] *29:12 0
9 mgmt_gpio_in_buf[15] mgmt_gpio_in_buf[16] 0.000347531
10 *16:5 mgmt_gpio_in_buf[16] 0.000125342
11 *17:15 *29:12 0.000207079
12 *18:12 mgmt_gpio_in_buf[16] 0.000120904
13 *21:20 *29:12 5.81639e-05
14 *26:16 mgmt_gpio_in_buf[16] 0.000127981
15 *26:16 *29:12 1.85378e-05
*RES
1 *157:X *29:12 46.3479 
2 *29:12 mgmt_gpio_in_buf[16] 44.8179 
*END

*D_NET *30 0.00722978
*CONN
*P mgmt_gpio_in_buf[17] O
*I *158:X O *D sky130_fd_sc_hd__clkbuf_8
*CAP
1 mgmt_gpio_in_buf[17] 0.00217624
2 *158:X 8.72893e-05
3 *30:7 0.00226353
4 mgmt_gpio_in_buf[17] mgmt_gpio_in_buf[18] 0.000644053
5 mgmt_gpio_in_buf[17] mgmt_gpio_out_buf[7] 6.02277e-06
6 mgmt_gpio_in_buf[17] mgmt_gpio_out_buf[8] 0.000971141
7 *30:7 *73:14 7.72342e-05
8 mgmt_gpio_in_buf[15] mgmt_gpio_in_buf[17] 0
9 mgmt_gpio_in_buf[16] mgmt_gpio_in_buf[17] 0.000228562
10 *12:41 mgmt_gpio_in_buf[17] 0.000185686
11 *19:10 mgmt_gpio_in_buf[17] 0.000590033
*RES
1 *158:X *30:7 39.5743 
2 *30:7 mgmt_gpio_in_buf[17] 25.7818 
*END

*D_NET *31 0.0110955
*CONN
*P mgmt_gpio_in_buf[18] O
*I *160:X O *D sky130_fd_sc_hd__clkbuf_8
*CAP
1 mgmt_gpio_in_buf[18] 0.00126626
2 *160:X 0.000377263
3 *31:15 0.00251554
4 *31:7 0.00162654
5 mgmt_gpio_in_buf[18] mgmt_gpio_out_buf[4] 0.000984315
6 *31:7 *93:DIODE 0.000304564
7 *31:7 *164:A 0.000232409
8 *31:7 *82:7 0.000101764
9 *31:15 *43:23 0
10 *31:15 *48:11 0.000605156
11 *31:15 *49:16 0.000551872
12 *31:15 *68:16 0
13 *31:15 *70:6 0.000246748
14 *31:15 *72:7 8.61484e-05
15 *31:15 *73:8 0
16 *31:15 *80:11 0.00118938
17 mgmt_gpio_in_buf[11] *31:15 0
18 mgmt_gpio_in_buf[17] mgmt_gpio_in_buf[18] 0.000644053
19 *12:28 *31:7 0.000359813
20 *14:24 *31:15 0
21 *15:10 mgmt_gpio_in_buf[18] 0
22 *18:16 *31:15 0
23 *29:12 *31:15 3.7122e-06
*RES
1 *160:X *31:7 48.15 
2 *31:7 *31:15 44.6421 
3 *31:15 mgmt_gpio_in_buf[18] 38.6538 
*END

*D_NET *32 0.00135961
*CONN
*P mgmt_gpio_in_buf[1] O
*I *141:X O *D sky130_fd_sc_hd__clkbuf_8
*CAP
1 mgmt_gpio_in_buf[1] 0.000500436
2 *141:X 0.000500436
3 mgmt_gpio_in_buf[1] mgmt_gpio_in_buf[2] 0.000255424
4 mgmt_gpio_in_buf[1] *52:8 0
5 mgmt_gpio_in_buf[1] *54:14 0
6 mgmt_gpio_in_buf[0] mgmt_gpio_in_buf[1] 0.000103316
*RES
1 *141:X mgmt_gpio_in_buf[1] 49.3362 
*END

*D_NET *33 0.00117345
*CONN
*P mgmt_gpio_in_buf[2] O
*I *142:X O *D sky130_fd_sc_hd__clkbuf_8
*CAP
1 mgmt_gpio_in_buf[2] 0.00037315
2 *142:X 0.00037315
3 mgmt_gpio_in_buf[2] mgmt_gpio_in_buf[3] 0.000171728
4 mgmt_gpio_in_buf[2] *52:8 0
5 mgmt_gpio_in_buf[2] *54:14 0
6 mgmt_gpio_in_buf[1] mgmt_gpio_in_buf[2] 0.000255424
*RES
1 *142:X mgmt_gpio_in_buf[2] 48.0408 
*END

*D_NET *34 0.00102611
*CONN
*P mgmt_gpio_in_buf[3] O
*I *143:X O *D sky130_fd_sc_hd__clkbuf_8
*CAP
1 mgmt_gpio_in_buf[3] 0.000358977
2 *143:X 0.000358977
3 mgmt_gpio_in_buf[3] mgmt_gpio_in_buf[4] 0.000125865
4 mgmt_gpio_in_buf[3] *52:8 0
5 mgmt_gpio_in_buf[3] *54:14 1.05658e-05
6 mgmt_gpio_in_buf[2] mgmt_gpio_in_buf[3] 0.000171728
*RES
1 *143:X mgmt_gpio_in_buf[3] 47.3365 
*END

*D_NET *35 0.00133883
*CONN
*P mgmt_gpio_in_buf[4] O