*SPEF "ieee 1481-1999"
*DESIGN "mprj_io_buffer"
*DATE "11:11:11 Fri 11 11, 1111"
*VENDOR "OpenRCX"
*PROGRAM "Parallel Extraction"
*VERSION "1.0"
*DESIGN_FLOW "NAME_SCOPE LOCAL" "PIN_CAP NONE"
*DIVIDER /
*DELIMITER :
*BUS_DELIMITER []
*T_UNIT 1 NS
*C_UNIT 1 PF
*R_UNIT 1 OHM
*L_UNIT 1 HENRY

*NAME_MAP
*3 mgmt_gpio_in[0]
*4 mgmt_gpio_in[10]
*5 mgmt_gpio_in[11]
*6 mgmt_gpio_in[12]
*7 mgmt_gpio_in[13]
*8 mgmt_gpio_in[14]
*9 mgmt_gpio_in[15]
*10 mgmt_gpio_in[16]
*11 mgmt_gpio_in[17]
*12 mgmt_gpio_in[18]
*13 mgmt_gpio_in[1]
*14 mgmt_gpio_in[2]
*15 mgmt_gpio_in[3]
*16 mgmt_gpio_in[4]
*17 mgmt_gpio_in[5]
*18 mgmt_gpio_in[6]
*19 mgmt_gpio_in[7]
*20 mgmt_gpio_in[8]
*21 mgmt_gpio_in[9]
*22 mgmt_gpio_in_buf[0]
*23 mgmt_gpio_in_buf[10]
*24 mgmt_gpio_in_buf[11]
*25 mgmt_gpio_in_buf[12]
*26 mgmt_gpio_in_buf[13]
*27 mgmt_gpio_in_buf[14]
*28 mgmt_gpio_in_buf[15]
*29 mgmt_gpio_in_buf[16]
*30 mgmt_gpio_in_buf[17]
*31 mgmt_gpio_in_buf[18]
*32 mgmt_gpio_in_buf[1]
*33 mgmt_gpio_in_buf[2]
*34 mgmt_gpio_in_buf[3]
*35 mgmt_gpio_in_buf[4]
*36 mgmt_gpio_in_buf[5]
*37 mgmt_gpio_in_buf[6]
*38 mgmt_gpio_in_buf[7]
*39 mgmt_gpio_in_buf[8]
*40 mgmt_gpio_in_buf[9]
*41 mgmt_gpio_oeb[0]
*42 mgmt_gpio_oeb[1]
*43 mgmt_gpio_oeb[2]
*44 mgmt_gpio_oeb_buf[0]
*45 mgmt_gpio_oeb_buf[1]
*46 mgmt_gpio_oeb_buf[2]
*47 mgmt_gpio_out[0]
*48 mgmt_gpio_out[10]
*49 mgmt_gpio_out[11]
*50 mgmt_gpio_out[12]
*51 mgmt_gpio_out[13]
*52 mgmt_gpio_out[14]
*53 mgmt_gpio_out[15]
*54 mgmt_gpio_out[16]
*55 mgmt_gpio_out[17]
*56 mgmt_gpio_out[18]
*57 mgmt_gpio_out[1]
*58 mgmt_gpio_out[2]
*59 mgmt_gpio_out[3]
*60 mgmt_gpio_out[4]
*61 mgmt_gpio_out[5]
*62 mgmt_gpio_out[6]
*63 mgmt_gpio_out[7]
*64 mgmt_gpio_out[8]
*65 mgmt_gpio_out[9]
*66 mgmt_gpio_out_buf[0]
*67 mgmt_gpio_out_buf[10]
*68 mgmt_gpio_out_buf[11]
*69 mgmt_gpio_out_buf[12]
*70 mgmt_gpio_out_buf[13]
*71 mgmt_gpio_out_buf[14]
*72 mgmt_gpio_out_buf[15]
*73 mgmt_gpio_out_buf[16]
*74 mgmt_gpio_out_buf[17]
*75 mgmt_gpio_out_buf[18]
*76 mgmt_gpio_out_buf[1]
*77 mgmt_gpio_out_buf[2]
*78 mgmt_gpio_out_buf[3]
*79 mgmt_gpio_out_buf[4]
*80 mgmt_gpio_out_buf[5]
*81 mgmt_gpio_out_buf[6]
*82 mgmt_gpio_out_buf[7]
*83 mgmt_gpio_out_buf[8]
*84 mgmt_gpio_out_buf[9]
*85 ANTENNA_BUF\[0\]_A
*86 ANTENNA_BUF\[10\]_A
*87 ANTENNA_BUF\[11\]_A
*88 ANTENNA_BUF\[12\]_A
*89 ANTENNA_BUF\[13\]_A
*90 ANTENNA_BUF\[14\]_A
*91 ANTENNA_BUF\[15\]_A
*92 ANTENNA_BUF\[16\]_A
*93 ANTENNA_BUF\[17\]_A
*94 ANTENNA_BUF\[18\]_A
*95 ANTENNA_BUF\[19\]_A
*96 ANTENNA_BUF\[1\]_A
*97 ANTENNA_BUF\[20\]_A
*98 ANTENNA_BUF\[21\]_A
*99 ANTENNA_BUF\[22\]_A
*100 ANTENNA_BUF\[23\]_A
*101 ANTENNA_BUF\[24\]_A
*102 ANTENNA_BUF\[25\]_A
*103 ANTENNA_BUF\[26\]_A
*104 ANTENNA_BUF\[27\]_A
*105 ANTENNA_BUF\[28\]_A
*106 ANTENNA_BUF\[29\]_A
*107 ANTENNA_BUF\[2\]_A
*108 ANTENNA_BUF\[30\]_A
*109 ANTENNA_BUF\[31\]_A
*110 ANTENNA_BUF\[32\]_A
*111 ANTENNA_BUF\[33\]_A
*112 ANTENNA_BUF\[34\]_A
*113 ANTENNA_BUF\[35\]_A
*114 ANTENNA_BUF\[36\]_A
*115 ANTENNA_BUF\[37\]_A
*116 ANTENNA_BUF\[38\]_A
*117 ANTENNA_BUF\[39\]_A
*118 ANTENNA_BUF\[3\]_A
*119 ANTENNA_BUF\[40\]_A
*120 ANTENNA_BUF\[4\]_A
*121 ANTENNA_BUF\[5\]_A
*122 ANTENNA_BUF\[6\]_A
*123 ANTENNA_BUF\[7\]_A
*124 ANTENNA_BUF\[8\]_A
*125 ANTENNA_BUF\[9\]_A
*126 BUF\[0\]
*127 BUF\[10\]
*128 BUF\[11\]
*129 BUF\[12\]
*130 BUF\[13\]
*131 BUF\[14\]
*132 BUF\[15\]
*133 BUF\[16\]
*134 BUF\[17\]
*135 BUF\[18\]
*136 BUF\[19\]
*137 BUF\[1\]
*138 BUF\[20\]
*139 BUF\[21\]
*140 BUF\[22\]
*141 BUF\[23\]
*142 BUF\[24\]
*143 BUF\[25\]
*144 BUF\[26\]
*145 BUF\[27\]
*146 BUF\[28\]
*147 BUF\[29\]
*148 BUF\[2\]
*149 BUF\[30\]
*150 BUF\[31\]
*151 BUF\[32\]
*152 BUF\[33\]
*153 BUF\[34\]
*154 BUF\[35\]
*155 BUF\[36\]
*156 BUF\[37\]
*157 BUF\[38\]
*158 BUF\[39\]
*159 BUF\[3\]
*160 BUF\[40\]
*161 BUF\[4\]
*162 BUF\[5\]
*163 BUF\[6\]
*164 BUF\[7\]
*165 BUF\[8\]
*166 BUF\[9\]
*167 FILLER_0_11
*168 FILLER_0_26
*169 FILLER_0_29
*170 FILLER_0_3
*171 FILLER_0_42
*172 FILLER_0_48
*173 FILLER_0_54
*174 FILLER_0_57
*175 FILLER_0_65
*176 FILLER_0_70
*177 FILLER_10_13
*178 FILLER_10_17
*179 FILLER_10_20
*180 FILLER_10_26
*181 FILLER_10_29
*182 FILLER_10_3
*183 FILLER_10_34
*184 FILLER_10_49
*185 FILLER_10_64
*186 FILLER_10_7
*187 FILLER_10_70
*188 FILLER_11_24
*189 FILLER_11_3
*190 FILLER_11_39
*191 FILLER_11_54
*192 FILLER_11_57
*193 FILLER_11_70
*194 FILLER_11_9
*195 FILLER_12_11
*196 FILLER_12_26
*197 FILLER_12_29
*198 FILLER_12_3
*199 FILLER_12_43
*200 FILLER_12_58
*201 FILLER_12_64
*202 FILLER_12_70
*203 FILLER_13_11
*204 FILLER_13_26
*205 FILLER_13_29
*206 FILLER_13_3
*207 FILLER_13_33
*208 FILLER_13_39
*209 FILLER_13_54
*210 FILLER_13_57
*211 FILLER_13_70
*212 FILLER_1_13
*213 FILLER_1_28
*214 FILLER_1_3
*215 FILLER_1_43
*216 FILLER_1_49
*217 FILLER_1_55
*218 FILLER_1_57
*219 FILLER_1_7
*220 FILLER_1_70
*221 FILLER_2_11
*222 FILLER_2_26
*223 FILLER_2_29
*224 FILLER_2_3
*225 FILLER_2_42
*226 FILLER_2_57
*227 FILLER_2_63
*228 FILLER_2_69
*229 FILLER_3_14
*230 FILLER_3_29
*231 FILLER_3_3
*232 FILLER_3_33
*233 FILLER_3_45
*234 FILLER_3_51
*235 FILLER_3_55
*236 FILLER_3_57
*237 FILLER_3_61
*238 FILLER_3_67
*239 FILLER_3_70
*240 FILLER_3_8
*241 FILLER_4_11
*242 FILLER_4_26
*243 FILLER_4_29
*244 FILLER_4_3
*245 FILLER_4_33
*246 FILLER_4_48
*247 FILLER_4_54
*248 FILLER_4_64
*249 FILLER_4_70
*250 FILLER_5_15
*251 FILLER_5_3
*252 FILLER_5_30
*253 FILLER_5_34
*254 FILLER_5_46
*255 FILLER_5_54
*256 FILLER_5_57
*257 FILLER_5_70
*258 FILLER_5_9
*259 FILLER_6_11
*260 FILLER_6_26
*261 FILLER_6_29
*262 FILLER_6_3
*263 FILLER_6_35
*264 FILLER_6_38
*265 FILLER_6_53
*266 FILLER_6_70
*267 FILLER_7_21
*268 FILLER_7_3
*269 FILLER_7_36
*270 FILLER_7_51
*271 FILLER_7_55
*272 FILLER_7_57
*273 FILLER_7_70
*274 FILLER_7_9
*275 FILLER_8_11
*276 FILLER_8_26
*277 FILLER_8_29
*278 FILLER_8_3
*279 FILLER_8_33
*280 FILLER_8_36
*281 FILLER_8_51
*282 FILLER_8_70
*283 FILLER_9_18
*284 FILLER_9_3
*285 FILLER_9_33
*286 FILLER_9_48
*287 FILLER_9_54
*288 FILLER_9_57
*289 FILLER_9_70
*290 PHY_0
*291 PHY_1
*292 PHY_10
*293 PHY_11
*294 PHY_12
*295 PHY_13
*296 PHY_14
*297 PHY_15
*298 PHY_16
*299 PHY_17
*300 PHY_18
*301 PHY_19
*302 PHY_2
*303 PHY_20
*304 PHY_21
*305 PHY_22
*306 PHY_23
*307 PHY_24
*308 PHY_25
*309 PHY_26
*310 PHY_27
*311 PHY_3
*312 PHY_4
*313 PHY_5
*314 PHY_6
*315 PHY_7
*316 PHY_8
*317 PHY_9
*318 TAP_28
*319 TAP_29
*320 TAP_30
*321 TAP_31
*322 TAP_32
*323 TAP_33
*324 TAP_34
*325 TAP_35
*326 TAP_36
*327 TAP_37
*328 TAP_38
*329 TAP_39
*330 TAP_40
*331 TAP_41
*332 TAP_42
*333 TAP_43

*PORTS
mgmt_gpio_in[0] I
mgmt_gpio_in[10] I
mgmt_gpio_in[11] I
mgmt_gpio_in[12] I
mgmt_gpio_in[13] I
mgmt_gpio_in[14] I
mgmt_gpio_in[15] I
mgmt_gpio_in[16] I
mgmt_gpio_in[17] I
mgmt_gpio_in[18] I
mgmt_gpio_in[1] I
mgmt_gpio_in[2] I
mgmt_gpio_in[3] I
mgmt_gpio_in[4] I
mgmt_gpio_in[5] I
mgmt_gpio_in[6] I
mgmt_gpio_in[7] I
mgmt_gpio_in[8] I
mgmt_gpio_in[9] I
mgmt_gpio_in_buf[0] O
mgmt_gpio_in_buf[10] O
mgmt_gpio_in_buf[11] O
mgmt_gpio_in_buf[12] O
mgmt_gpio_in_buf[13] O
mgmt_gpio_in_buf[14] O
mgmt_gpio_in_buf[15] O
mgmt_gpio_in_buf[16] O
mgmt_gpio_in_buf[17] O
mgmt_gpio_in_buf[18] O
mgmt_gpio_in_buf[1] O
mgmt_gpio_in_buf[2] O
mgmt_gpio_in_buf[3] O
mgmt_gpio_in_buf[4] O
mgmt_gpio_in_buf[5] O
mgmt_gpio_in_buf[6] O
mgmt_gpio_in_buf[7] O
mgmt_gpio_in_buf[8] O
mgmt_gpio_in_buf[9] O
mgmt_gpio_oeb[0] I
mgmt_gpio_oeb[1] I
mgmt_gpio_oeb[2] I
mgmt_gpio_oeb_buf[0] O
mgmt_gpio_oeb_buf[1] O
mgmt_gpio_oeb_buf[2] O
mgmt_gpio_out[0] I
mgmt_gpio_out[10] I
mgmt_gpio_out[11] I
mgmt_gpio_out[12] I
mgmt_gpio_out[13] I
mgmt_gpio_out[14] I
mgmt_gpio_out[15] I
mgmt_gpio_out[16] I
mgmt_gpio_out[17] I
mgmt_gpio_out[18] I
mgmt_gpio_out[1] I
mgmt_gpio_out[2] I
mgmt_gpio_out[3] I
mgmt_gpio_out[4] I
mgmt_gpio_out[5] I
mgmt_gpio_out[6] I
mgmt_gpio_out[7] I
mgmt_gpio_out[8] I
mgmt_gpio_out[9] I
mgmt_gpio_out_buf[0] O
mgmt_gpio_out_buf[10] O
mgmt_gpio_out_buf[11] O
mgmt_gpio_out_buf[12] O
mgmt_gpio_out_buf[13] O
mgmt_gpio_out_buf[14] O
mgmt_gpio_out_buf[15] O
mgmt_gpio_out_buf[16] O
mgmt_gpio_out_buf[17] O
mgmt_gpio_out_buf[18] O
mgmt_gpio_out_buf[1] O
mgmt_gpio_out_buf[2] O
mgmt_gpio_out_buf[3] O
mgmt_gpio_out_buf[4] O
mgmt_gpio_out_buf[5] O
mgmt_gpio_out_buf[6] O
mgmt_gpio_out_buf[7] O
mgmt_gpio_out_buf[8] O
mgmt_gpio_out_buf[9] O

*D_NET *3 0.00457156
*CONN
*P mgmt_gpio_in[0] I
*I *140:A I *D sky130_fd_sc_hd__clkbuf_8
*I *99:DIODE I *D sky130_fd_sc_hd__diode_2
*CAP
1 mgmt_gpio_in[0] 0.00107838
2 *140:A 0.000106765
3 *99:DIODE 0.000376877
4 *3:11 0.00156202
5 *99:DIODE *100:DIODE 9.16614e-05
6 *3:11 mgmt_gpio_in_buf[17] 0.000264019
7 *3:11 mgmt_gpio_in_buf[9] 0
8 *3:11 mgmt_gpio_out_buf[0] 0
9 *3:11 mgmt_gpio_out_buf[1] 3.16801e-05
10 *3:11 mgmt_gpio_out_buf[2] 0
11 *3:11 *100:DIODE 7.41388e-05
12 *3:11 *13:9 1.01417e-05
13 *3:11 *77:13 0.000975874
*RES
1 mgmt_gpio_in[0] *3:11 24.5893 
2 *3:11 *99:DIODE 19.8357 
3 *3:11 *140:A 15.1571 
*END

*D_NET *4 0.00350809
*CONN
*P mgmt_gpio_in[10] I
*I *151:A I *D sky130_fd_sc_hd__clkbuf_8
*I *110:DIODE I *D sky130_fd_sc_hd__diode_2
*CAP
1 mgmt_gpio_in[10] 0.000574015
2 *151:A 0.000462744
3 *110:DIODE 0
4 *4:12 0.00103676
5 *151:A mgmt_gpio_in_buf[13] 5.52238e-05
6 *151:A mgmt_gpio_in_buf[14] 0.000146701
7 *151:A mgmt_gpio_out_buf[7] 0.000176234
8 *151:A *18:22 9.20607e-05
9 *4:12 mgmt_gpio_in_buf[14] 0.000351382
10 *4:12 mgmt_gpio_out_buf[10] 0.000271998
11 *4:12 mgmt_gpio_out_buf[11] 0.00014179
12 *4:12 *114:DIODE 1.94945e-05
13 *4:12 *152:A 0.000143698
14 *4:12 *155:A 3.59911e-05
*RES
1 mgmt_gpio_in[10] *4:12 17.1429 
2 *4:12 *110:DIODE 9.3 
3 *4:12 *151:A 26.9607 
*END

*D_NET *5 0.00305997
*CONN
*P mgmt_gpio_in[11] I
*I *111:DIODE I *D sky130_fd_sc_hd__diode_2
*I *152:A I *D sky130_fd_sc_hd__clkbuf_8
*CAP
1 mgmt_gpio_in[11] 0.000145297
2 *111:DIODE 0
3 *152:A 0.000685623
4 *5:7 0.00083092
5 *152:A mgmt_gpio_in_buf[14] 0.000157286
6 *152:A *149:A 0.000128523
7 *152:A *150:A 0.000520325
8 *152:A *20:10 0.000356555
9 *5:7 mgmt_gpio_out_buf[11] 9.17447e-05
10 *5:7 mgmt_gpio_out_buf[12] 0
11 *4:12 *152:A 0.000143698
*RES
1 mgmt_gpio_in[11] *5:7 7.75 
2 *5:7 *152:A 23.8179 
3 *5:7 *111:DIODE 9.3 
*END

*D_NET *6 0.00390404
*CONN
*P mgmt_gpio_in[12] I
*I *153:A I *D sky130_fd_sc_hd__clkbuf_8
*I *112:DIODE I *D sky130_fd_sc_hd__diode_2
*CAP
1 mgmt_gpio_in[12] 0.000168843
2 *153:A 0.000597098
3 *112:DIODE 0.000212111
4 *6:5 0.000978051
5 *112:DIODE mgmt_gpio_out_buf[12] 0.000101545
6 *112:DIODE mgmt_gpio_out_buf[13] 1.25579e-05
7 *112:DIODE mgmt_gpio_out_buf[15] 6.56976e-05
8 *153:A mgmt_gpio_in_buf[13] 0.000354337
9 *153:A *109:DIODE 7.78593e-05
10 *153:A *150:A 0.00015247
11 *153:A *154:A 0.000442566
12 *6:5 mgmt_gpio_out_buf[12] 0.000544704
13 *6:5 mgmt_gpio_out_buf[13] 0.000196201
*RES
1 mgmt_gpio_in[12] *6:5 6.89286 
2 *6:5 *112:DIODE 16.9071 
3 *6:5 *153:A 26.3893 
*END

*D_NET *7 0.00296253
*CONN
*P mgmt_gpio_in[13] I
*I *154:A I *D sky130_fd_sc_hd__clkbuf_8
*I *113:DIODE I *D sky130_fd_sc_hd__diode_2
*CAP
1 mgmt_gpio_in[13] 0.000491747
2 *154:A 0.000131305
3 *113:DIODE 0.00016536
4 *7:13 0.000788412
5 *113:DIODE mgmt_gpio_out_buf[11] 0
6 *113:DIODE mgmt_gpio_out_buf[12] 0.000316532
7 *113:DIODE *9:11 2.06112e-05
8 *154:A *109:DIODE 8.12505e-05
9 *7:13 mgmt_gpio_out_buf[11] 0
10 *7:13 mgmt_gpio_out_buf[12] 0.000166615
11 *7:13 mgmt_gpio_out_buf[13] 0.000358126
12 *153:A *154:A 0.000442566
*RES
1 mgmt_gpio_in[13] *7:13 19.25 
2 *7:13 *113:DIODE 17.8714 
3 *7:13 *154:A 18.0321 
*END

*D_NET *8 0.00591952
*CONN
*P mgmt_gpio_in[14] I
*I *155:A I *D sky130_fd_sc_hd__clkbuf_8
*I *114:DIODE I *D sky130_fd_sc_hd__diode_2
*CAP
1 mgmt_gpio_in[14] 0.000565904
2 *155:A 1.07914e-05
3 *114:DIODE 0.00122857
4 *8:7 0.00180526
5 *114:DIODE mgmt_gpio_out_buf[10] 0.000930231
6 *114:DIODE mgmt_gpio_out_buf[11] 0.000339002
7 *114:DIODE mgmt_gpio_out_buf[18] 0
8 *114:DIODE *127:A 0
9 *114:DIODE *156:A 8.15939e-05
10 *114:DIODE *166:A 0.00013848
11 *114:DIODE *12:15 0
12 *114:DIODE *48:19 0
13 *114:DIODE *59:16 2.03536e-05
14 *114:DIODE *60:10 0.000234629
15 *114:DIODE *61:13 0.000260384
16 *114:DIODE *68:11 0
17 *114:DIODE *69:13 0
18 *155:A mgmt_gpio_out_buf[10] 4.50149e-05
19 *8:7 mgmt_gpio_out_buf[14] 0.00014558
20 *8:7 mgmt_gpio_out_buf[15] 5.82414e-05
21 *8:7 *9:11 0
22 *4:12 *114:DIODE 1.94945e-05
23 *4:12 *155:A 3.59911e-05
*RES
1 mgmt_gpio_in[14] *8:7 4.8388 
2 *8:7 *114:DIODE 43.6125 
3 *8:7 *155:A 14.3804 
*END

*D_NET *9 0.00148504
*CONN
*P mgmt_gpio_in[15] I
*I *156:A I *D sky130_fd_sc_hd__clkbuf_8
*I *115:DIODE I *D sky130_fd_sc_hd__diode_2
*CAP
1 mgmt_gpio_in[15] 0.000399893
2 *156:A 0.000136704
3 *115:DIODE 0
4 *9:11 0.000536597
5 *156:A mgmt_gpio_out_buf[11] 0.000150103
6 *9:11 mgmt_gpio_out_buf[15] 6.06115e-05
7 *9:11 mgmt_gpio_out_buf[16] 9.89303e-05
8 *113:DIODE *9:11 2.06112e-05
9 *114:DIODE *156:A 8.15939e-05
10 *8:7 *9:11 0
*RES
1 mgmt_gpio_in[15] *9:11 11.1456 
2 *9:11 *115:DIODE 9.3 
3 *9:11 *156:A 21.1929 
*END

*D_NET *10 0.00393526
*CONN
*P mgmt_gpio_in[16] I
*I *157:A I *D sky130_fd_sc_hd__clkbuf_8
*I *116:DIODE I *D sky130_fd_sc_hd__diode_2
*CAP
1 mgmt_gpio_in[16] 0.00101102
2 *157:A 0.00013934
3 *116:DIODE 0
4 *10:8 0.00115036
5 *157:A mgmt_gpio_in_buf[15] 9.56233e-05
6 *157:A mgmt_gpio_out_buf[14] 0.000277516
7 *157:A mgmt_gpio_out_buf[9] 0.000268981
8 *10:8 mgmt_gpio_out_buf[14] 0.000348373
9 *10:8 mgmt_gpio_out_buf[16] 0.000203126
10 *10:8 mgmt_gpio_out_buf[17] 8.78218e-05
11 *10:8 mgmt_gpio_out_buf[9] 0.000353103
*RES
1 mgmt_gpio_in[16] *10:8 10.0142 
2 *10:8 *116:DIODE 13.8 
3 *10:8 *157:A 19.0321 
*END

*D_NET *11 0.00553671
*CONN
*P mgmt_gpio_in[17] I
*I *158:A I *D sky130_fd_sc_hd__clkbuf_8
*I *117:DIODE I *D sky130_fd_sc_hd__diode_2
*CAP
1 mgmt_gpio_in[17] 0.00168155
2 *158:A 0.000228026
3 *117:DIODE 0
4 *11:12 0.00190958
5 *158:A mgmt_gpio_in_buf[4] 0
6 *158:A mgmt_gpio_out_buf[7] 0.000107744
7 *158:A *160:A 0
8 *158:A *64:5 3.11443e-05
9 *11:12 mgmt_gpio_oeb_buf[0] 0.00024154
10 *11:12 mgmt_gpio_oeb_buf[1] 0
11 *11:12 mgmt_gpio_out_buf[16] 9.11825e-07
12 *11:12 mgmt_gpio_out_buf[17] 0
13 *11:12 mgmt_gpio_out_buf[18] 0.000174304
14 *11:12 *159:A 0.000397912
15 *11:12 *160:A 0
16 *11:12 *64:5 0.000652785
17 *11:12 *65:16 0.000111218
*RES
1 mgmt_gpio_in[17] *11:12 15.5735 
2 *11:12 *117:DIODE 13.8 
3 *11:12 *158:A 18.8714 
*END

*D_NET *12 0.00622842
*CONN
*P mgmt_gpio_in[18] I
*I *160:A I *D sky130_fd_sc_hd__clkbuf_8
*I *119:DIODE I *D sky130_fd_sc_hd__diode_2
*CAP
1 mgmt_gpio_in[18] 0.00167001
2 *160:A 0.000364904
3 *119:DIODE 0
4 *12:15 0.00203492
5 *160:A mgmt_gpio_in_buf[4] 0.000408758
6 *160:A *159:A 0
7 *12:15 mgmt_gpio_oeb_buf[1] 0.000434928
8 *12:15 mgmt_gpio_oeb_buf[2] 9.89303e-05
9 *12:15 mgmt_gpio_out_buf[14] 0.000491227
10 *12:15 mgmt_gpio_out_buf[18] 4.77725e-05
11 *12:15 *90:DIODE 7.6644e-05
12 *12:15 *122:DIODE 0
13 *12:15 *127:A 0.00043149
14 *12:15 *135:A 0
15 *12:15 *48:19 7.6644e-05
16 *12:15 *51:34 7.07155e-06
17 *12:15 *62:8 8.51167e-05
18 *12:15 *63:20 0
19 *114:DIODE *12:15 0
20 *158:A *160:A 0
21 *11:12 *160:A 0
*RES
1 mgmt_gpio_in[18] *12:15 27.1605 
2 *12:15 *119:DIODE 9.3 
3 *12:15 *160:A 25.3536 
*END

*D_NET *13 0.00546125
*CONN
*P mgmt_gpio_in[1] I
*I *141:A I *D sky130_fd_sc_hd__clkbuf_8
*I *100:DIODE I *D sky130_fd_sc_hd__diode_2
*CAP
1 mgmt_gpio_in[1] 0.000578549
2 *141:A 3.04135e-05
3 *100:DIODE 0.000337197
4 *13:9 0.00094616
5 *100:DIODE mgmt_gpio_in_buf[3] 0
6 *100:DIODE *101:DIODE 0.000310035
7 *141:A *77:13 5.33005e-05
8 *13:9 mgmt_gpio_in_buf[17] 0.000798135
9 *13:9 mgmt_gpio_in_buf[7] 0.00030941
10 *13:9 mgmt_gpio_out_buf[2] 0.000650533
11 *13:9 *101:DIODE 0.000231829
12 *13:9 *14:13 0.000385158
13 *13:9 *77:13 0.000654589
14 *99:DIODE *100:DIODE 9.16614e-05
15 *3:11 *100:DIODE 7.41388e-05
16 *3:11 *13:9 1.01417e-05
*RES
1 mgmt_gpio_in[1] *13:9 21.8214 
2 *13:9 *100:DIODE 21.175 
3 *13:9 *141:A 14.3357 
*END

*D_NET *14 0.00484959
*CONN
*P mgmt_gpio_in[2] I
*I *142:A I *D sky130_fd_sc_hd__clkbuf_8
*I *101:DIODE I *D sky130_fd_sc_hd__diode_2
*CAP
1 mgmt_gpio_in[2] 0.000889943
2 *142:A 0
3 *101:DIODE 0.000257452
4 *14:13 0.0011474
5 *101:DIODE mgmt_gpio_in_buf[3] 0
6 *101:DIODE mgmt_gpio_in_buf[5] 0
7 *101:DIODE mgmt_gpio_in_buf[7] 0.000206069
8 *14:13 mgmt_gpio_in_buf[5] 0.000123068
9 *14:13 mgmt_gpio_in_buf[7] 0.000372364
10 *14:13 mgmt_gpio_out_buf[2] 0
11 *14:13 *106:DIODE 0
12 *14:13 *145:A 0.000590693
13 *14:13 *15:9 6.80513e-05
14 *14:13 *17:11 0.000267537
15 *100:DIODE *101:DIODE 0.000310035
16 *13:9 *101:DIODE 0.000231829
17 *13:9 *14:13 0.000385158
*RES
1 mgmt_gpio_in[2] *14:13 30.7857 
2 *14:13 *101:DIODE 20.9071 
3 *14:13 *142:A 13.8 
*END

*D_NET *15 0.00427762
*CONN
*P mgmt_gpio_in[3] I
*I *143:A I *D sky130_fd_sc_hd__clkbuf_8
*I *102:DIODE I *D sky130_fd_sc_hd__diode_2
*CAP
1 mgmt_gpio_in[3] 0.000620435
2 *143:A 0
3 *102:DIODE 0.000463571
4 *15:9 0.00108401
5 *102:DIODE mgmt_gpio_in_buf[2] 0
6 *102:DIODE mgmt_gpio_in_buf[6] 0
7 *102:DIODE mgmt_gpio_out_buf[4] 0.000557567
8 *15:9 mgmt_gpio_in_buf[10] 0.000547271
9 *15:9 mgmt_gpio_in_buf[11] 0
10 *15:9 mgmt_gpio_in_buf[16] 0.000351371
11 *15:9 mgmt_gpio_in_buf[6] 0.000359488
12 *15:9 mgmt_gpio_out_buf[3] 3.16801e-05
13 *15:9 mgmt_gpio_out_buf[4] 0
14 *15:9 *145:A 0.000114612
15 *15:9 *17:11 7.95714e-05
16 *14:13 *15:9 6.80513e-05
*RES
1 mgmt_gpio_in[3] *15:9 21.75 
2 *15:9 *102:DIODE 27.9964 
3 *15:9 *143:A 9.3 
*END

*D_NET *16 0.00301142
*CONN
*P mgmt_gpio_in[4] I
*I *144:A I *D sky130_fd_sc_hd__clkbuf_8
*I *103:DIODE I *D sky130_fd_sc_hd__diode_2
*CAP
1 mgmt_gpio_in[4] 0.000252421
2 *144:A 6.88074e-05
3 *103:DIODE 0.000109439
4 *16:5 0.000430668
5 *103:DIODE mgmt_gpio_out_buf[3] 0.000120697
6 *103:DIODE mgmt_gpio_out_buf[4] 0.000118982
7 *144:A *18:22 0.000136676
8 *16:5 mgmt_gpio_out_buf[3] 0.000882552
9 *16:5 mgmt_gpio_out_buf[4] 0.000891175
*RES
1 mgmt_gpio_in[4] *16:5 11.4464 
2 *16:5 *103:DIODE 15.9786 
3 *16:5 *144:A 15.1571 
*END

*D_NET *17 0.00405191
*CONN
*P mgmt_gpio_in[5] I
*I *104:DIODE I *D sky130_fd_sc_hd__diode_2
*I *145:A I *D sky130_fd_sc_hd__clkbuf_8
*CAP
1 mgmt_gpio_in[5] 0.000743883
2 *104:DIODE 5.54804e-05
3 *145:A 0.000285997
4 *17:11 0.00108536
5 *145:A mgmt_gpio_in_buf[16] 0.0002442
6 *145:A mgmt_gpio_in_buf[6] 0.000121871
7 *17:11 mgmt_gpio_in_buf[16] 0.000105114
8 *17:11 mgmt_gpio_out_buf[3] 0
9 *17:11 mgmt_gpio_out_buf[5] 0.000101613
10 *17:11 mgmt_gpio_out_buf[6] 7.41844e-05
11 *17:11 *19:14 0.000181796
12 *14:13 *145:A 0.000590693
13 *14:13 *17:11 0.000267537
14 *15:9 *145:A 0.000114612
15 *15:9 *17:11 7.95714e-05
*RES
1 mgmt_gpio_in[5] *17:11 21.5 
2 *17:11 *145:A 22.4607 
3 *17:11 *104:DIODE 14.3357 
*END

*D_NET *18 0.00459563
*CONN
*P mgmt_gpio_in[6] I
*I *105:DIODE I *D sky130_fd_sc_hd__diode_2
*I *146:A I *D sky130_fd_sc_hd__clkbuf_8
*CAP
1 mgmt_gpio_in[6] 0.000821354
2 *105:DIODE 0.000315353
3 *146:A 0
4 *18:22 0.00113671
5 *105:DIODE mgmt_gpio_in_buf[17] 0.000303164
6 *105:DIODE mgmt_gpio_in_buf[6] 5.33005e-05
7 *18:22 mgmt_gpio_in_buf[15] 7.82891e-05
8 *18:22 mgmt_gpio_in_buf[16] 2.79421e-05
9 *18:22 mgmt_gpio_in_buf[17] 0.000303542
10 *18:22 mgmt_gpio_out_buf[3] 0
11 *18:22 mgmt_gpio_out_buf[5] 0.000460038
12 *18:22 mgmt_gpio_out_buf[6] 0.000648622
13 *18:22 mgmt_gpio_out_buf[7] 0
14 *18:22 *149:A 0.000218576
15 *18:22 *19:14 0
16 *144:A *18:22 0.000136676
17 *151:A *18:22 9.20607e-05
*RES
1 mgmt_gpio_in[6] *18:22 42.3929 
2 *18:22 *146:A 9.3 
3 *18:22 *105:DIODE 16.0143 
*END

*D_NET *19 0.00421473
*CONN
*P mgmt_gpio_in[7] I
*I *106:DIODE I *D sky130_fd_sc_hd__diode_2
*I *147:A I *D sky130_fd_sc_hd__clkbuf_8
*CAP
1 mgmt_gpio_in[7] 0.000931732
2 *106:DIODE 0.000360628
3 *147:A 0
4 *19:14 0.00129236
5 *106:DIODE mgmt_gpio_in_buf[16] 4.08637e-05
6 *106:DIODE mgmt_gpio_out_buf[2] 9.89573e-05
7 *19:14 mgmt_gpio_in_buf[15] 7.67227e-05
8 *19:14 mgmt_gpio_in_buf[16] 0.000432834
9 *19:14 mgmt_gpio_out_buf[3] 0.000505709
10 *19:14 mgmt_gpio_out_buf[5] 6.05933e-05
11 *19:14 mgmt_gpio_out_buf[7] 0.000165227
12 *19:14 mgmt_gpio_out_buf[8] 6.73105e-05
13 *14:13 *106:DIODE 0
14 *17:11 *19:14 0.000181796
15 *18:22 *19:14 0
*RES
1 mgmt_gpio_in[7] *19:14 32.9643 
2 *19:14 *147:A 9.3 
3 *19:14 *106:DIODE 23.5857 
*END

*D_NET *20 0.00294317
*CONN
*P mgmt_gpio_in[8] I
*I *149:A I *D sky130_fd_sc_hd__clkbuf_8
*I *108:DIODE I *D sky130_fd_sc_hd__diode_2
*CAP
1 mgmt_gpio_in[8] 0.000405294
2 *149:A 0.000371493
3 *108:DIODE 0
4 *20:10 0.000776787
5 *149:A mgmt_gpio_in_buf[12] 0.000122665
6 *149:A mgmt_gpio_in_buf[13] 0
7 *149:A mgmt_gpio_in_buf[14] 0
8 *149:A mgmt_gpio_in_buf[15] 0.000136958
9 *149:A mgmt_gpio_in_buf[16] 0.000138606
10 *149:A mgmt_gpio_out_buf[6] 2.86144e-05
11 *20:10 mgmt_gpio_out_buf[14] 0
12 *20:10 mgmt_gpio_out_buf[7] 0
13 *20:10 mgmt_gpio_out_buf[8] 0.000259094
14 *20:10 mgmt_gpio_out_buf[9] 0
15 *152:A *149:A 0.000128523
16 *152:A *20:10 0.000356555
17 *18:22 *149:A 0.000218576
*RES
1 mgmt_gpio_in[8] *20:10 12.1071 
2 *20:10 *108:DIODE 9.3 
3 *20:10 *149:A 26.3 
*END

*D_NET *21 0.00481185
*CONN
*P mgmt_gpio_in[9] I
*I *150:A I *D sky130_fd_sc_hd__clkbuf_8
*I *109:DIODE I *D sky130_fd_sc_hd__diode_2
*CAP
1 mgmt_gpio_in[9] 0.000248007
2 *150:A 0.000999827
3 *109:DIODE 0.000360561
4 *21:7 0.0016084
5 *150:A mgmt_gpio_in_buf[11] 5.33005e-05
6 *150:A mgmt_gpio_in_buf[14] 0.000181796
7 *150:A mgmt_gpio_out_buf[7] 0.000146474
8 *150:A mgmt_gpio_out_buf[8] 0.000145484
9 *21:7 mgmt_gpio_out_buf[10] 0
10 *21:7 mgmt_gpio_out_buf[9] 0.000236095
11 *152:A *150:A 0.000520325
12 *153:A *109:DIODE 7.78593e-05
13 *153:A *150:A 0.00015247
14 *154:A *109:DIODE 8.12505e-05
*RES
1 mgmt_gpio_in[9] *21:7 10.1786 
2 *21:7 *109:DIODE 13.9429 
3 *21:7 *150:A 36.1036 
*END

*D_NET *22 0.00335343
*CONN
*P mgmt_gpio_in_buf[0] O
*I *140:X O *D sky130_fd_sc_hd__clkbuf_8
*CAP
1 mgmt_gpio_in_buf[0] 0.000771857
2 *140:X 0.000771857
3 mgmt_gpio_in_buf[0] mgmt_gpio_in_buf[1] 0.000773681
4 mgmt_gpio_in_buf[0] mgmt_gpio_in_buf[3] 0.000358101
5 mgmt_gpio_in_buf[0] *43:10 0.000243479
6 mgmt_gpio_in_buf[0] *51:25 9.28185e-05
7 mgmt_gpio_in_buf[0] *52:12 0.000341631
*RES
1 *140:X mgmt_gpio_in_buf[0] 28.6299 
*END

*D_NET *23 0.00361729
*CONN
*P mgmt_gpio_in_buf[10] O
*I *151:X O *D sky130_fd_sc_hd__clkbuf_8
*CAP
1 mgmt_gpio_in_buf[10] 0.00116827
2 *151:X 0.00116827
3 mgmt_gpio_in_buf[10] mgmt_gpio_in_buf[11] 0.000657671
4 mgmt_gpio_in_buf[10] mgmt_gpio_in_buf[8] 0
5 mgmt_gpio_in_buf[10] mgmt_gpio_in_buf[9] 7.58025e-05
6 mgmt_gpio_in_buf[10] mgmt_gpio_out_buf[4] 0
7 *15:9 mgmt_gpio_in_buf[10] 0.000547271
*RES
1 *151:X mgmt_gpio_in_buf[10] 27.2954 
*END

*D_NET *24 0.004137
*CONN
*P mgmt_gpio_in_buf[11] O
*I *152:X O *D sky130_fd_sc_hd__clkbuf_8
*CAP
1 mgmt_gpio_in_buf[11] 0.00121639
2 *152:X 0.00121639
3 mgmt_gpio_in_buf[11] mgmt_gpio_in_buf[12] 0.000270204
4 mgmt_gpio_in_buf[11] mgmt_gpio_out_buf[4] 0.000723039
5 mgmt_gpio_in_buf[10] mgmt_gpio_in_buf[11] 0.000657671
6 *150:A mgmt_gpio_in_buf[11] 5.33005e-05
7 *15:9 mgmt_gpio_in_buf[11] 0
*RES
1 *152:X mgmt_gpio_in_buf[11] 29.0629 
*END

*D_NET *25 0.00406449
*CONN
*P mgmt_gpio_in_buf[12] O
*I *153:X O *D sky130_fd_sc_hd__clkbuf_8
*CAP
1 mgmt_gpio_in_buf[12] 0.00148847
2 *153:X 0.00148847
3 mgmt_gpio_in_buf[12] mgmt_gpio_in_buf[13] 0.000325334
4 mgmt_gpio_in_buf[12] mgmt_gpio_out_buf[6] 0.000369343
5 mgmt_gpio_in_buf[12] mgmt_gpio_out_buf[7] 0
6 mgmt_gpio_in_buf[11] mgmt_gpio_in_buf[12] 0.000270204
7 *149:A mgmt_gpio_in_buf[12] 0.000122665
*RES
1 *153:X mgmt_gpio_in_buf[12] 24.8384 
*END

*D_NET *26 0.00569993
*CONN
*P mgmt_gpio_in_buf[13] O
*I *154:X O *D sky130_fd_sc_hd__clkbuf_8
*CAP
1 mgmt_gpio_in_buf[13] 0.00170637
2 *154:X 0.00170637
3 mgmt_gpio_in_buf[13] mgmt_gpio_in_buf[14] 0.00145281
4 mgmt_gpio_in_buf[13] mgmt_gpio_out_buf[7] 9.94813e-05
5 mgmt_gpio_in_buf[12] mgmt_gpio_in_buf[13] 0.000325334
6 *149:A mgmt_gpio_in_buf[13] 0
7 *151:A mgmt_gpio_in_buf[13] 5.52238e-05
8 *153:A mgmt_gpio_in_buf[13] 0.000354337
*RES
1 *154:X mgmt_gpio_in_buf[13] 27.347 
*END

*D_NET *27 0.00616137
*CONN
*P mgmt_gpio_in_buf[14] O
*I *155:X O *D sky130_fd_sc_hd__clkbuf_8
*CAP
1 mgmt_gpio_in_buf[14] 0.00181004
2 *155:X 0.00181004
3 mgmt_gpio_in_buf[14] mgmt_gpio_in_buf[15] 0.000241019
4 mgmt_gpio_in_buf[14] mgmt_gpio_out_buf[7] 1.02969e-05
5 mgmt_gpio_in_buf[13] mgmt_gpio_in_buf[14] 0.00145281
6 *149:A mgmt_gpio_in_buf[14] 0
7 *150:A mgmt_gpio_in_buf[14] 0.000181796
8 *151:A mgmt_gpio_in_buf[14] 0.000146701
9 *152:A mgmt_gpio_in_buf[14] 0.000157286
10 *4:12 mgmt_gpio_in_buf[14] 0.000351382
*RES
1 *155:X mgmt_gpio_in_buf[14] 28.4028 
*END

*D_NET *28 0.00503997
*CONN
*P mgmt_gpio_in_buf[15] O
*I *156:X O *D sky130_fd_sc_hd__clkbuf_8
*CAP
1 mgmt_gpio_in_buf[15] 0.00201534
2 *156:X 0.00201534
3 mgmt_gpio_in_buf[15] mgmt_gpio_in_buf[16] 0.000380691
4 mgmt_gpio_in_buf[15] mgmt_gpio_in_buf[18] 0
5 mgmt_gpio_in_buf[14] mgmt_gpio_in_buf[15] 0.000241019
6 *149:A mgmt_gpio_in_buf[15] 0.000136958
7 *157:A mgmt_gpio_in_buf[15] 9.56233e-05
8 *18:22 mgmt_gpio_in_buf[15] 7.82891e-05
9 *19:14 mgmt_gpio_in_buf[15] 7.67227e-05
*RES
1 *156:X mgmt_gpio_in_buf[15] 32.4953 
*END

*D_NET *29 0.00418321
*CONN
*P mgmt_gpio_in_buf[16] O
*I *157:X O *D sky130_fd_sc_hd__clkbuf_8
*CAP
1 mgmt_gpio_in_buf[16] 0.00114598
2 *157:X 0.00114598
3 mgmt_gpio_in_buf[16] mgmt_gpio_in_buf[17] 7.54604e-05
4 mgmt_gpio_in_buf[16] mgmt_gpio_in_buf[18] 0
5 mgmt_gpio_in_buf[16] mgmt_gpio_in_buf[8] 9.41642e-05
6 mgmt_gpio_in_buf[15] mgmt_gpio_in_buf[16] 0.000380691
7 *106:DIODE mgmt_gpio_in_buf[16] 4.08637e-05
8 *145:A mgmt_gpio_in_buf[16] 0.0002442
9 *149:A mgmt_gpio_in_buf[16] 0.000138606
10 *15:9 mgmt_gpio_in_buf[16] 0.000351371
11 *17:11 mgmt_gpio_in_buf[16] 0.000105114
12 *18:22 mgmt_gpio_in_buf[16] 2.79421e-05
13 *19:14 mgmt_gpio_in_buf[16] 0.000432834
*RES
1 *157:X mgmt_gpio_in_buf[16] 32.737 
*END

*D_NET *30 0.00524804
*CONN
*P mgmt_gpio_in_buf[17] O
*I *158:X O *D sky130_fd_sc_hd__clkbuf_8
*CAP
1 mgmt_gpio_in_buf[17] 0.00142325
2 *158:X 0.00142325
3 mgmt_gpio_in_buf[17] mgmt_gpio_in_buf[18] 0.000230394
4 mgmt_gpio_in_buf[17] mgmt_gpio_in_buf[6] 5.33005e-05
5 mgmt_gpio_in_buf[17] mgmt_gpio_in_buf[8] 3.00941e-05
6 mgmt_gpio_in_buf[17] mgmt_gpio_out_buf[5] 5.56943e-05
7 mgmt_gpio_in_buf[17] *77:13 0.000287744
8 mgmt_gpio_in_buf[16] mgmt_gpio_in_buf[17] 7.54604e-05
9 *105:DIODE mgmt_gpio_in_buf[17] 0.000303164
10 *3:11 mgmt_gpio_in_buf[17] 0.000264019
11 *13:9 mgmt_gpio_in_buf[17] 0.000798135
12 *18:22 mgmt_gpio_in_buf[17] 0.000303542
*RES
1 *158:X mgmt_gpio_in_buf[17] 48.7347 
*END

*D_NET *31 0.00584448
*CONN
*P mgmt_gpio_in_buf[18] O
*I *160:X O *D sky130_fd_sc_hd__clkbuf_8
*CAP
1 mgmt_gpio_in_buf[18] 0.00279216
2 *160:X 0.00279216
3 mgmt_gpio_in_buf[18] mgmt_gpio_in_buf[8] 2.9761e-05
4 mgmt_gpio_in_buf[18] mgmt_gpio_out_buf[5] 0
5 mgmt_gpio_in_buf[15] mgmt_gpio_in_buf[18] 0
6 mgmt_gpio_in_buf[16] mgmt_gpio_in_buf[18] 0
7 mgmt_gpio_in_buf[17] mgmt_gpio_in_buf[18] 0.000230394
*RES
1 *160:X mgmt_gpio_in_buf[18] 29.3577 
*END

*D_NET *32 0.00394117
*CONN
*P mgmt_gpio_in_buf[1] O
*I *141:X O *D sky130_fd_sc_hd__clkbuf_8
*CAP
1 mgmt_gpio_in_buf[1] 0.000771208
2 *141:X 0.000771208
3 mgmt_gpio_in_buf[1] mgmt_gpio_in_buf[2] 0.00141578
4 mgmt_gpio_in_buf[1] mgmt_gpio_in_buf[3] 1.53472e-05
5 mgmt_gpio_in_buf[1] mgmt_gpio_in_buf[6] 0.0001406
6 mgmt_gpio_in_buf[1] *43:10 0
7 mgmt_gpio_in_buf[1] *51:25 2.74191e-05
8 mgmt_gpio_in_buf[1] *77:13 2.59355e-05
9 mgmt_gpio_in_buf[0] mgmt_gpio_in_buf[1] 0.000773681
*RES
1 *141:X mgmt_gpio_in_buf[1] 29.1346 
*END

*D_NET *33 0.00404259
*CONN
*P mgmt_gpio_in_buf[2] O
*I *142:X O *D sky130_fd_sc_hd__clkbuf_8
*CAP
1 mgmt_gpio_in_buf[2] 0.0010341
2 *142:X 0.0010341
3 mgmt_gpio_in_buf[2] mgmt_gpio_in_buf[3] 0.000218978
4 mgmt_gpio_in_buf[2] mgmt_gpio_in_buf[4] 0
5 mgmt_gpio_in_buf[2] mgmt_gpio_in_buf[6] 0.000100123
6 mgmt_gpio_in_buf[2] mgmt_gpio_out_buf[4] 0
7 mgmt_gpio_in_buf[2] *148:A 0
8 mgmt_gpio_in_buf[2] *43:10 0
9 mgmt_gpio_in_buf[2] *51:25 0.000206257
10 mgmt_gpio_in_buf[2] *58:11 0
11 mgmt_gpio_in_buf[2] *76:9 3.32631e-05
12 mgmt_gpio_in_buf[1] mgmt_gpio_in_buf[2] 0.00141578
13 *102:DIODE mgmt_gpio_in_buf[2] 0
*RES
1 *142:X mgmt_gpio_in_buf[2] 31.7424 
*END

*D_NET *34 0.00385313
*CONN
*P mgmt_gpio_in_buf[3] O
*I *143:X O *D sky130_fd_sc_hd__clkbuf_8
*CAP
1 mgmt_gpio_in_buf[3] 0.000970847
2 *143:X 0.000970847
3 mgmt_gpio_in_buf[3] mgmt_gpio_in_buf[4] 0.00024067
4 mgmt_gpio_in_buf[3] mgmt_gpio_in_buf[5] 0.000564893
5 mgmt_gpio_in_buf[3] mgmt_gpio_in_buf[6] 0.000513444
6 mgmt_gpio_in_buf[0] mgmt_gpio_in_buf[3] 0.000358101
7 mgmt_gpio_in_buf[1] mgmt_gpio_in_buf[3] 1.53472e-05
8 mgmt_gpio_in_buf[2] mgmt_gpio_in_buf[3] 0.000218978
9 *100:DIODE mgmt_gpio_in_buf[3] 0
10 *101:DIODE mgmt_gpio_in_buf[3] 0
*RES
1 *143:X mgmt_gpio_in_buf[3] 32.6649 
*END

*D_NET *35 0.00568931
*CONN
*P mgmt_gpio_in_buf[4] O
*I *144:X O *D sky130_fd_sc_hd__clkbuf_8
*CAP
1 mgmt_gpio_in_buf[4] 0.00187983
2 *144:X 0.00187983
3 mgmt_gpio_in_buf[4] mgmt_gpio_in_buf[5] 0.000204396
4 mgmt_gpio_in_buf[4] mgmt_gpio_in_buf[6] 1.37319e-05
5 mgmt_gpio_in_buf[4] mgmt_gpio_out_buf[16] 3.90782e-06
6 mgmt_gpio_in_buf[4] mgmt_gpio_out_buf[6] 0.000851098
7 mgmt_gpio_in_buf[4] mgmt_gpio_out_buf[7] 0
8 mgmt_gpio_in_buf[4] *128:A 0.000207081
9 mgmt_gpio_in_buf[4] *159:A 0
10 mgmt_gpio_in_buf[4] *65:16 0
11 mgmt_gpio_in_buf[2] mgmt_gpio_in_buf[4] 0
12 mgmt_gpio_in_buf[3] mgmt_gpio_in_buf[4] 0.00024067
13 *158:A mgmt_gpio_in_buf[4] 0
14 *160:A mgmt_gpio_in_buf[4] 0.000408758
*RES
1 *144:X mgmt_gpio_in_buf[4] 35.5396 
*END

*D_NET *36 0.003453
*CONN
*P mgmt_gpio_in_buf[5] O
*I *145:X O *D sky130_fd_sc_hd__clkbuf_8
*CAP
1 mgmt_gpio_in_buf[5] 0.000941092
2 *145:X 0.000941092
3 mgmt_gpio_in_buf[5] mgmt_gpio_in_buf[6] 0.000678464
4 mgmt_gpio_in_buf[5] mgmt_gpio_in_buf[7] 0
5 mgmt_gpio_in_buf[3] mgmt_gpio_in_buf[5] 0.000564893
6 mgmt_gpio_in_buf[4] mgmt_gpio_in_buf[5] 0.000204396
7 *101:DIODE mgmt_gpio_in_buf[5] 0
8 *14:13 mgmt_gpio_in_buf[5] 0.000123068
*RES
1 *145:X mgmt_gpio_in_buf[5] 30.8648 
*END

*D_NET *37 0.00396397
*CONN
*P mgmt_gpio_in_buf[6] O
*I *146:X O *D sky130_fd_sc_hd__clkbuf_8
*CAP
1 mgmt_gpio_in_buf[6] 0.000911665
2 *146:X 0.000911665
3 mgmt_gpio_in_buf[6] mgmt_gpio_in_buf[7] 0.000106313
4 mgmt_gpio_in_buf[6] mgmt_gpio_in_buf[8] 0
5 mgmt_gpio_in_buf[17] mgmt_gpio_in_buf[6] 5.33005e-05