*SPEF "ieee 1481-1999"
*DESIGN "mprj_io_buffer"
*DATE "11:11:11 Fri 11 11, 1111"
*VENDOR "OpenRCX"
*PROGRAM "Parallel Extraction"
*VERSION "1.0"
*DESIGN_FLOW "NAME_SCOPE LOCAL" "PIN_CAP NONE"
*DIVIDER /
*DELIMITER :
*BUS_DELIMITER []
*T_UNIT 1 NS
*C_UNIT 1 PF
*R_UNIT 1 OHM
*L_UNIT 1 HENRY

*NAME_MAP
*3 mgmt_gpio_in[0]
*4 mgmt_gpio_in[10]
*5 mgmt_gpio_in[11]
*6 mgmt_gpio_in[12]
*7 mgmt_gpio_in[13]
*8 mgmt_gpio_in[14]
*9 mgmt_gpio_in[15]
*10 mgmt_gpio_in[16]
*11 mgmt_gpio_in[17]
*12 mgmt_gpio_in[18]
*13 mgmt_gpio_in[1]
*14 mgmt_gpio_in[2]
*15 mgmt_gpio_in[3]
*16 mgmt_gpio_in[4]
*17 mgmt_gpio_in[5]
*18 mgmt_gpio_in[6]
*19 mgmt_gpio_in[7]
*20 mgmt_gpio_in[8]
*21 mgmt_gpio_in[9]
*22 mgmt_gpio_in_buf[0]
*23 mgmt_gpio_in_buf[10]
*24 mgmt_gpio_in_buf[11]
*25 mgmt_gpio_in_buf[12]
*26 mgmt_gpio_in_buf[13]
*27 mgmt_gpio_in_buf[14]
*28 mgmt_gpio_in_buf[15]
*29 mgmt_gpio_in_buf[16]
*30 mgmt_gpio_in_buf[17]
*31 mgmt_gpio_in_buf[18]
*32 mgmt_gpio_in_buf[1]
*33 mgmt_gpio_in_buf[2]
*34 mgmt_gpio_in_buf[3]
*35 mgmt_gpio_in_buf[4]
*36 mgmt_gpio_in_buf[5]
*37 mgmt_gpio_in_buf[6]
*38 mgmt_gpio_in_buf[7]
*39 mgmt_gpio_in_buf[8]
*40 mgmt_gpio_in_buf[9]
*41 mgmt_gpio_oeb[0]
*42 mgmt_gpio_oeb[1]
*43 mgmt_gpio_oeb[2]
*44 mgmt_gpio_oeb_buf[0]
*45 mgmt_gpio_oeb_buf[1]
*46 mgmt_gpio_oeb_buf[2]
*47 mgmt_gpio_out[0]
*48 mgmt_gpio_out[10]
*49 mgmt_gpio_out[11]
*50 mgmt_gpio_out[12]
*51 mgmt_gpio_out[13]
*52 mgmt_gpio_out[14]
*53 mgmt_gpio_out[15]
*54 mgmt_gpio_out[16]
*55 mgmt_gpio_out[17]
*56 mgmt_gpio_out[18]
*57 mgmt_gpio_out[1]
*58 mgmt_gpio_out[2]
*59 mgmt_gpio_out[3]
*60 mgmt_gpio_out[4]
*61 mgmt_gpio_out[5]
*62 mgmt_gpio_out[6]
*63 mgmt_gpio_out[7]
*64 mgmt_gpio_out[8]
*65 mgmt_gpio_out[9]
*66 mgmt_gpio_out_buf[0]
*67 mgmt_gpio_out_buf[10]
*68 mgmt_gpio_out_buf[11]
*69 mgmt_gpio_out_buf[12]
*70 mgmt_gpio_out_buf[13]
*71 mgmt_gpio_out_buf[14]
*72 mgmt_gpio_out_buf[15]
*73 mgmt_gpio_out_buf[16]
*74 mgmt_gpio_out_buf[17]
*75 mgmt_gpio_out_buf[18]
*76 mgmt_gpio_out_buf[1]
*77 mgmt_gpio_out_buf[2]
*78 mgmt_gpio_out_buf[3]
*79 mgmt_gpio_out_buf[4]
*80 mgmt_gpio_out_buf[5]
*81 mgmt_gpio_out_buf[6]
*82 mgmt_gpio_out_buf[7]
*83 mgmt_gpio_out_buf[8]
*84 mgmt_gpio_out_buf[9]
*85 ANTENNA_BUF\[0\]_A
*86 ANTENNA_BUF\[10\]_A
*87 ANTENNA_BUF\[11\]_A
*88 ANTENNA_BUF\[12\]_A
*89 ANTENNA_BUF\[13\]_A
*90 ANTENNA_BUF\[14\]_A
*91 ANTENNA_BUF\[15\]_A
*92 ANTENNA_BUF\[16\]_A
*93 ANTENNA_BUF\[17\]_A
*94 ANTENNA_BUF\[18\]_A
*95 ANTENNA_BUF\[19\]_A
*96 ANTENNA_BUF\[1\]_A
*97 ANTENNA_BUF\[20\]_A
*98 ANTENNA_BUF\[21\]_A
*99 ANTENNA_BUF\[22\]_A
*100 ANTENNA_BUF\[23\]_A
*101 ANTENNA_BUF\[24\]_A
*102 ANTENNA_BUF\[25\]_A
*103 ANTENNA_BUF\[26\]_A
*104 ANTENNA_BUF\[27\]_A
*105 ANTENNA_BUF\[28\]_A
*106 ANTENNA_BUF\[29\]_A
*107 ANTENNA_BUF\[2\]_A
*108 ANTENNA_BUF\[30\]_A
*109 ANTENNA_BUF\[31\]_A
*110 ANTENNA_BUF\[32\]_A
*111 ANTENNA_BUF\[33\]_A
*112 ANTENNA_BUF\[34\]_A
*113 ANTENNA_BUF\[35\]_A
*114 ANTENNA_BUF\[36\]_A
*115 ANTENNA_BUF\[37\]_A
*116 ANTENNA_BUF\[38\]_A
*117 ANTENNA_BUF\[39\]_A
*118 ANTENNA_BUF\[3\]_A
*119 ANTENNA_BUF\[40\]_A
*120 ANTENNA_BUF\[4\]_A
*121 ANTENNA_BUF\[5\]_A
*122 ANTENNA_BUF\[6\]_A
*123 ANTENNA_BUF\[7\]_A
*124 ANTENNA_BUF\[8\]_A
*125 ANTENNA_BUF\[9\]_A
*126 BUF\[0\]
*127 BUF\[10\]
*128 BUF\[11\]
*129 BUF\[12\]
*130 BUF\[13\]
*131 BUF\[14\]
*132 BUF\[15\]
*133 BUF\[16\]
*134 BUF\[17\]
*135 BUF\[18\]
*136 BUF\[19\]
*137 BUF\[1\]
*138 BUF\[20\]
*139 BUF\[21\]
*140 BUF\[22\]
*141 BUF\[23\]
*142 BUF\[24\]
*143 BUF\[25\]
*144 BUF\[26\]
*145 BUF\[27\]
*146 BUF\[28\]
*147 BUF\[29\]
*148 BUF\[2\]
*149 BUF\[30\]
*150 BUF\[31\]
*151 BUF\[32\]
*152 BUF\[33\]
*153 BUF\[34\]
*154 BUF\[35\]
*155 BUF\[36\]
*156 BUF\[37\]
*157 BUF\[38\]
*158 BUF\[39\]
*159 BUF\[3\]
*160 BUF\[40\]
*161 BUF\[4\]
*162 BUF\[5\]
*163 BUF\[6\]
*164 BUF\[7\]
*165 BUF\[8\]
*166 BUF\[9\]
*167 FILLER_0_11
*168 FILLER_0_26
*169 FILLER_0_29
*170 FILLER_0_3
*171 FILLER_0_42
*172 FILLER_0_48
*173 FILLER_0_54
*174 FILLER_0_57
*175 FILLER_0_65
*176 FILLER_0_70
*177 FILLER_10_13
*178 FILLER_10_17
*179 FILLER_10_20
*180 FILLER_10_26
*181 FILLER_10_29
*182 FILLER_10_3
*183 FILLER_10_34
*184 FILLER_10_49
*185 FILLER_10_64
*186 FILLER_10_7
*187 FILLER_10_70
*188 FILLER_11_24
*189 FILLER_11_3
*190 FILLER_11_39
*191 FILLER_11_54
*192 FILLER_11_57
*193 FILLER_11_70
*194 FILLER_11_9
*195 FILLER_12_11
*196 FILLER_12_26
*197 FILLER_12_29
*198 FILLER_12_3
*199 FILLER_12_43
*200 FILLER_12_58
*201 FILLER_12_64
*202 FILLER_12_70
*203 FILLER_13_11
*204 FILLER_13_26
*205 FILLER_13_29
*206 FILLER_13_3
*207 FILLER_13_33
*208 FILLER_13_39
*209 FILLER_13_54
*210 FILLER_13_57
*211 FILLER_13_70
*212 FILLER_1_13
*213 FILLER_1_28
*214 FILLER_1_3
*215 FILLER_1_43
*216 FILLER_1_49
*217 FILLER_1_55
*218 FILLER_1_57
*219 FILLER_1_7
*220 FILLER_1_70
*221 FILLER_2_11
*222 FILLER_2_26
*223 FILLER_2_29
*224 FILLER_2_3
*225 FILLER_2_42
*226 FILLER_2_57
*227 FILLER_2_63
*228 FILLER_2_69
*229 FILLER_3_14
*230 FILLER_3_29
*231 FILLER_3_3
*232 FILLER_3_33
*233 FILLER_3_45
*234 FILLER_3_51
*235 FILLER_3_55
*236 FILLER_3_57
*237 FILLER_3_61
*238 FILLER_3_67
*239 FILLER_3_70
*240 FILLER_3_8
*241 FILLER_4_11
*242 FILLER_4_26
*243 FILLER_4_29
*244 FILLER_4_3
*245 FILLER_4_33
*246 FILLER_4_48
*247 FILLER_4_54
*248 FILLER_4_64
*249 FILLER_4_70
*250 FILLER_5_15
*251 FILLER_5_3
*252 FILLER_5_30
*253 FILLER_5_34
*254 FILLER_5_46
*255 FILLER_5_54
*256 FILLER_5_57
*257 FILLER_5_70
*258 FILLER_5_9
*259 FILLER_6_11
*260 FILLER_6_26
*261 FILLER_6_29
*262 FILLER_6_3
*263 FILLER_6_35
*264 FILLER_6_38
*265 FILLER_6_53
*266 FILLER_6_70
*267 FILLER_7_21
*268 FILLER_7_3
*269 FILLER_7_36
*270 FILLER_7_51
*271 FILLER_7_55
*272 FILLER_7_57
*273 FILLER_7_70
*274 FILLER_7_9
*275 FILLER_8_11
*276 FILLER_8_26
*277 FILLER_8_29
*278 FILLER_8_3
*279 FILLER_8_33
*280 FILLER_8_36
*281 FILLER_8_51
*282 FILLER_8_70
*283 FILLER_9_18
*284 FILLER_9_3
*285 FILLER_9_33
*286 FILLER_9_48
*287 FILLER_9_54
*288 FILLER_9_57
*289 FILLER_9_70
*290 PHY_0
*291 PHY_1
*292 PHY_10
*293 PHY_11
*294 PHY_12
*295 PHY_13
*296 PHY_14
*297 PHY_15
*298 PHY_16
*299 PHY_17
*300 PHY_18
*301 PHY_19
*302 PHY_2
*303 PHY_20
*304 PHY_21
*305 PHY_22
*306 PHY_23
*307 PHY_24
*308 PHY_25
*309 PHY_26
*310 PHY_27
*311 PHY_3
*312 PHY_4
*313 PHY_5
*314 PHY_6
*315 PHY_7
*316 PHY_8
*317 PHY_9
*318 TAP_28
*319 TAP_29
*320 TAP_30
*321 TAP_31
*322 TAP_32
*323 TAP_33
*324 TAP_34
*325 TAP_35
*326 TAP_36
*327 TAP_37
*328 TAP_38
*329 TAP_39
*330 TAP_40
*331 TAP_41
*332 TAP_42
*333 TAP_43

*PORTS
mgmt_gpio_in[0] I
mgmt_gpio_in[10] I
mgmt_gpio_in[11] I
mgmt_gpio_in[12] I
mgmt_gpio_in[13] I
mgmt_gpio_in[14] I
mgmt_gpio_in[15] I
mgmt_gpio_in[16] I
mgmt_gpio_in[17] I
mgmt_gpio_in[18] I
mgmt_gpio_in[1] I
mgmt_gpio_in[2] I
mgmt_gpio_in[3] I
mgmt_gpio_in[4] I
mgmt_gpio_in[5] I
mgmt_gpio_in[6] I
mgmt_gpio_in[7] I
mgmt_gpio_in[8] I
mgmt_gpio_in[9] I
mgmt_gpio_in_buf[0] O
mgmt_gpio_in_buf[10] O
mgmt_gpio_in_buf[11] O
mgmt_gpio_in_buf[12] O
mgmt_gpio_in_buf[13] O
mgmt_gpio_in_buf[14] O
mgmt_gpio_in_buf[15] O
mgmt_gpio_in_buf[16] O
mgmt_gpio_in_buf[17] O
mgmt_gpio_in_buf[18] O
mgmt_gpio_in_buf[1] O
mgmt_gpio_in_buf[2] O
mgmt_gpio_in_buf[3] O
mgmt_gpio_in_buf[4] O
mgmt_gpio_in_buf[5] O
mgmt_gpio_in_buf[6] O
mgmt_gpio_in_buf[7] O
mgmt_gpio_in_buf[8] O
mgmt_gpio_in_buf[9] O
mgmt_gpio_oeb[0] I
mgmt_gpio_oeb[1] I
mgmt_gpio_oeb[2] I
mgmt_gpio_oeb_buf[0] O
mgmt_gpio_oeb_buf[1] O
mgmt_gpio_oeb_buf[2] O
mgmt_gpio_out[0] I
mgmt_gpio_out[10] I
mgmt_gpio_out[11] I
mgmt_gpio_out[12] I
mgmt_gpio_out[13] I
mgmt_gpio_out[14] I
mgmt_gpio_out[15] I
mgmt_gpio_out[16] I
mgmt_gpio_out[17] I
mgmt_gpio_out[18] I
mgmt_gpio_out[1] I
mgmt_gpio_out[2] I
mgmt_gpio_out[3] I
mgmt_gpio_out[4] I
mgmt_gpio_out[5] I
mgmt_gpio_out[6] I
mgmt_gpio_out[7] I
mgmt_gpio_out[8] I
mgmt_gpio_out[9] I
mgmt_gpio_out_buf[0] O
mgmt_gpio_out_buf[10] O
mgmt_gpio_out_buf[11] O
mgmt_gpio_out_buf[12] O
mgmt_gpio_out_buf[13] O
mgmt_gpio_out_buf[14] O
mgmt_gpio_out_buf[15] O
mgmt_gpio_out_buf[16] O
mgmt_gpio_out_buf[17] O
mgmt_gpio_out_buf[18] O
mgmt_gpio_out_buf[1] O
mgmt_gpio_out_buf[2] O
mgmt_gpio_out_buf[3] O
mgmt_gpio_out_buf[4] O
mgmt_gpio_out_buf[5] O
mgmt_gpio_out_buf[6] O
mgmt_gpio_out_buf[7] O
mgmt_gpio_out_buf[8] O
mgmt_gpio_out_buf[9] O

*D_NET *3 0.00415436
*CONN
*P mgmt_gpio_in[0] I
*I *140:A I *D sky130_fd_sc_hd__clkbuf_8
*I *99:DIODE I *D sky130_fd_sc_hd__diode_2
*CAP
1 mgmt_gpio_in[0] 0.00096537
2 *140:A 9.54732e-05
3 *99:DIODE 0.000336091
4 *3:11 0.00139693
5 *99:DIODE *100:DIODE 9.09611e-05
6 *3:11 mgmt_gpio_in_buf[17] 0.000256927
7 *3:11 mgmt_gpio_in_buf[9] 0
8 *3:11 mgmt_gpio_out_buf[0] 0
9 *3:11 mgmt_gpio_out_buf[1] 3.02513e-05
10 *3:11 mgmt_gpio_out_buf[2] 0.000900099
11 *3:11 *100:DIODE 7.20665e-05
12 *3:11 *13:9 1.01851e-05
*RES
1 mgmt_gpio_in[0] *3:11 20.655 
2 *3:11 *99:DIODE 8.67 
3 *3:11 *140:A 4.74 
*END

*D_NET *4 0.00316723
*CONN
*P mgmt_gpio_in[10] I
*I *151:A I *D sky130_fd_sc_hd__clkbuf_8
*I *110:DIODE I *D sky130_fd_sc_hd__diode_2
*CAP
1 mgmt_gpio_in[10] 0.000510302
2 *151:A 0.00040983
3 *110:DIODE 0
4 *4:12 0.000920133
5 *151:A mgmt_gpio_in_buf[13] 4.82863e-05
6 *151:A mgmt_gpio_in_buf[14] 0.000137148
7 *151:A mgmt_gpio_out_buf[7] 0.000163019
8 *151:A *18:22 8.78129e-05
9 *4:12 mgmt_gpio_in_buf[14] 0.000305549
10 *4:12 mgmt_gpio_out_buf[10] 0.00025242
11 *4:12 mgmt_gpio_out_buf[11] 0.000143095
12 *4:12 *114:DIODE 1.79536e-05
13 *4:12 *152:A 0.000138575
14 *4:12 *155:A 3.31051e-05
*RES
1 mgmt_gpio_in[10] *4:12 12.62 
2 *4:12 *110:DIODE 1.6 
3 *4:12 *151:A 12.875 
*END

*D_NET *5 0.002745
*CONN
*P mgmt_gpio_in[11] I
*I *111:DIODE I *D sky130_fd_sc_hd__diode_2
*I *152:A I *D sky130_fd_sc_hd__clkbuf_8
*CAP
1 mgmt_gpio_in[11] 0.000130598
2 *111:DIODE 0
3 *152:A 0.000614136
4 *5:7 0.000744734
5 *152:A mgmt_gpio_in_buf[14] 0.000148019
6 *152:A *149:A 0.00011138
7 *152:A *150:A 0.000452847
8 *152:A *20:10 0.00031035
9 *5:7 mgmt_gpio_out_buf[11] 9.43627e-05
10 *5:7 mgmt_gpio_out_buf[12] 0
11 *4:12 *152:A 0.000138575
*RES
1 mgmt_gpio_in[11] *5:7 4.73 
2 *5:7 *152:A 13.795 
3 *5:7 *111:DIODE 1.6 
*END

*D_NET *6 0.00351054
*CONN
*P mgmt_gpio_in[12] I
*I *153:A I *D sky130_fd_sc_hd__clkbuf_8
*I *112:DIODE I *D sky130_fd_sc_hd__diode_2
*CAP
1 mgmt_gpio_in[12] 0.000145399
2 *153:A 0.000533305
3 *112:DIODE 0.000183034
4 *6:5 0.000861738
5 *112:DIODE mgmt_gpio_out_buf[12] 9.37731e-05
6 *112:DIODE mgmt_gpio_out_buf[13] 1.2961e-05
7 *112:DIODE mgmt_gpio_out_buf[15] 6.06593e-05
8 *153:A mgmt_gpio_in_buf[13] 0.000308124
9 *153:A *109:DIODE 7.67194e-05
10 *153:A *150:A 0.000145498
11 *153:A *154:A 0.000384834
12 *6:5 mgmt_gpio_out_buf[12] 0.000503428
13 *6:5 mgmt_gpio_out_buf[13] 0.000201072
*RES
1 mgmt_gpio_in[12] *6:5 5.79 
2 *6:5 *112:DIODE 6.21 
3 *6:5 *153:A 14.175 
*END

*D_NET *7 0.00268031
*CONN
*P mgmt_gpio_in[13] I
*I *154:A I *D sky130_fd_sc_hd__clkbuf_8
*I *113:DIODE I *D sky130_fd_sc_hd__diode_2
*CAP
1 mgmt_gpio_in[13] 0.000446074
2 *154:A 0.000118711
3 *113:DIODE 0.000145944
4 *7:13 0.000710729
5 *113:DIODE mgmt_gpio_out_buf[11] 0
6 *113:DIODE mgmt_gpio_out_buf[12] 0.000292614
7 *113:DIODE *9:11 1.88602e-05
8 *154:A *109:DIODE 7.73629e-05
9 *7:13 mgmt_gpio_out_buf[11] 0
10 *7:13 mgmt_gpio_out_buf[12] 0.000154204
11 *7:13 mgmt_gpio_out_buf[13] 0.000330981
12 *153:A *154:A 0.000384834
*RES
1 mgmt_gpio_in[13] *7:13 12.61 
2 *7:13 *113:DIODE 7.02 
3 *7:13 *154:A 7.155 
*END

*D_NET *8 0.00538381
*CONN
*P mgmt_gpio_in[14] I
*I *155:A I *D sky130_fd_sc_hd__clkbuf_8
*I *114:DIODE I *D sky130_fd_sc_hd__diode_2
*CAP
1 mgmt_gpio_in[14] 0.000502545
2 *155:A 9.4239e-06
3 *114:DIODE 0.00106224
4 *8:7 0.00157421
5 *114:DIODE mgmt_gpio_out_buf[10] 0.000879308
6 *114:DIODE mgmt_gpio_out_buf[11] 0.000339415
7 *114:DIODE mgmt_gpio_out_buf[12] 0
8 *114:DIODE mgmt_gpio_out_buf[18] 0
9 *114:DIODE *127:A 0
10 *114:DIODE *156:A 7.89689e-05
11 *114:DIODE *166:A 0.000145461
12 *114:DIODE *12:15 0
13 *114:DIODE *48:19 0
14 *114:DIODE *59:16 2.15338e-05
15 *114:DIODE *60:10 0.000232706
16 *114:DIODE *61:13 0.000240196
17 *155:A mgmt_gpio_out_buf[10] 4.13879e-05
18 *8:7 mgmt_gpio_out_buf[14] 0.000146948
19 *8:7 mgmt_gpio_out_buf[15] 5.84039e-05
20 *8:7 *9:11 0
21 *4:12 *114:DIODE 1.79536e-05
22 *4:12 *155:A 3.31051e-05
*RES
1 mgmt_gpio_in[14] *8:7 1.6552 
2 *8:7 *114:DIODE 28.6425 
3 *8:7 *155:A 4.0875 
*END

*D_NET *9 0.00134716
*CONN
*P mgmt_gpio_in[15] I
*I *156:A I *D sky130_fd_sc_hd__clkbuf_8
*I *115:DIODE I *D sky130_fd_sc_hd__diode_2
*CAP
1 mgmt_gpio_in[15] 0.000358618
2 *156:A 0.000118195
3 *115:DIODE 0
4 *9:11 0.000476813
5 *156:A mgmt_gpio_out_buf[11] 0.00013642
6 *9:11 mgmt_gpio_out_buf[15] 6.05593e-05
7 *9:11 mgmt_gpio_out_buf[16] 9.87216e-05
8 *113:DIODE *9:11 1.88602e-05
9 *114:DIODE *156:A 7.89689e-05
10 *8:7 *9:11 0
*RES
1 mgmt_gpio_in[15] *9:11 5.1933 
2 *9:11 *115:DIODE 1.6 
3 *9:11 *156:A 8.03 
*END

*D_NET *10 0.00357852
*CONN
*P mgmt_gpio_in[16] I
*I *157:A I *D sky130_fd_sc_hd__clkbuf_8
*I *116:DIODE I *D sky130_fd_sc_hd__diode_2
*CAP
1 mgmt_gpio_in[16] 0.000897087
2 *157:A 0.000124023
3 *116:DIODE 0
4 *10:8 0.00102111
5 *157:A mgmt_gpio_in_buf[15] 9.00151e-05
6 *157:A mgmt_gpio_out_buf[14] 0.000256998
7 *157:A mgmt_gpio_out_buf[9] 0.000249161
8 *10:8 mgmt_gpio_out_buf[14] 0.000321581
9 *10:8 mgmt_gpio_out_buf[16] 0.000204109
10 *10:8 mgmt_gpio_out_buf[17] 8.86189e-05
11 *10:8 mgmt_gpio_out_buf[9] 0.000325816
*RES
1 mgmt_gpio_in[16] *10:8 5.9821 
2 *10:8 *116:DIODE 3.6 
3 *10:8 *157:A 7.995 
*END

*D_NET *11 0.00504504
*CONN
*P mgmt_gpio_in[17] I
*I *158:A I *D sky130_fd_sc_hd__clkbuf_8
*I *117:DIODE I *D sky130_fd_sc_hd__diode_2
*CAP
1 mgmt_gpio_in[17] 0.00149752
2 *158:A 0.000209668
3 *117:DIODE 0
4 *11:12 0.00170719
5 *158:A mgmt_gpio_in_buf[4] 0
6 *158:A mgmt_gpio_out_buf[7] 0.000104179
7 *158:A *160:A 0
8 *158:A *64:5 3.03486e-05
9 *11:12 mgmt_gpio_oeb_buf[0] 0.000241268
10 *11:12 mgmt_gpio_oeb_buf[1] 0
11 *11:12 mgmt_gpio_out_buf[16] 9.39045e-07
12 *11:12 mgmt_gpio_out_buf[17] 0
13 *11:12 mgmt_gpio_out_buf[18] 0.000175382
14 *11:12 *159:A 0.000371284
15 *11:12 *160:A 0
16 *11:12 *64:5 0.000604944
17 *11:12 *65:16 0.000102309
*RES
1 mgmt_gpio_in[17] *11:12 10.6315 
2 *11:12 *117:DIODE 3.6 
3 *11:12 *158:A 7.86 
*END

*D_NET *12 0.00560689
*CONN
*P mgmt_gpio_in[18] I
*I *160:A I *D sky130_fd_sc_hd__clkbuf_8
*I *119:DIODE I *D sky130_fd_sc_hd__diode_2
*CAP
1 mgmt_gpio_in[18] 0.00146813
2 *160:A 0.000326286
3 *119:DIODE 0
4 *12:15 0.00179441
5 *160:A mgmt_gpio_in_buf[4] 0.000371423
6 *160:A *159:A 0
7 *12:15 mgmt_gpio_oeb_buf[1] 0.000419517
8 *12:15 mgmt_gpio_oeb_buf[2] 9.87216e-05
9 *12:15 mgmt_gpio_out_buf[14] 0.00045253
10 *12:15 mgmt_gpio_out_buf[18] 4.95367e-05
11 *12:15 *90:DIODE 7.06865e-05
12 *12:15 *122:DIODE 0
13 *12:15 *127:A 0.000394854
14 *12:15 *135:A 0
15 *12:15 *48:19 7.06865e-05
16 *12:15 *51:34 7.27298e-06
17 *12:15 *62:8 8.28341e-05
18 *12:15 *63:20 0
19 *114:DIODE *12:15 0
20 *158:A *160:A 0
21 *11:12 *160:A 0
*RES
1 mgmt_gpio_in[18] *12:15 18.5954 
2 *12:15 *119:DIODE 1.6 
3 *12:15 *160:A 11.525 
*END

*D_NET *13 0.00494311
*CONN
*P mgmt_gpio_in[1] I
*I *141:A I *D sky130_fd_sc_hd__clkbuf_8
*I *100:DIODE I *D sky130_fd_sc_hd__diode_2
*CAP
1 mgmt_gpio_in[1] 0.000497603
2 *141:A 2.61242e-05
3 *100:DIODE 0.000301468
4 *13:9 0.000825195
5 *100:DIODE mgmt_gpio_in_buf[3] 0
6 *100:DIODE *101:DIODE 0.000285562
7 *141:A mgmt_gpio_out_buf[2] 4.66108e-05
8 *13:9 mgmt_gpio_in_buf[17] 0.000735923
9 *13:9 mgmt_gpio_in_buf[7] 0.000282779
10 *13:9 mgmt_gpio_out_buf[2] 0.00119993
11 *13:9 *101:DIODE 0.000213506
12 *13:9 *14:13 0.000355201
13 *99:DIODE *100:DIODE 9.09611e-05
14 *3:11 *100:DIODE 7.20665e-05
15 *3:11 *13:9 1.01851e-05
*RES
1 mgmt_gpio_in[1] *13:9 18.33 
2 *13:9 *100:DIODE 9.795 
3 *13:9 *141:A 4.05 
*END

*D_NET *14 0.0043882
*CONN
*P mgmt_gpio_in[2] I
*I *142:A I *D sky130_fd_sc_hd__clkbuf_8
*I *101:DIODE I *D sky130_fd_sc_hd__diode_2
*CAP
1 mgmt_gpio_in[2] 0.000790146
2 *142:A 0
3 *101:DIODE 0.000225462
4 *14:13 0.00101561
5 *101:DIODE mgmt_gpio_in_buf[3] 0
6 *101:DIODE mgmt_gpio_in_buf[5] 0
7 *101:DIODE mgmt_gpio_in_buf[7] 0.000187696
8 *14:13 mgmt_gpio_in_buf[5] 0.000114858
9 *14:13 mgmt_gpio_in_buf[7] 0.000338893
10 *14:13 mgmt_gpio_out_buf[2] 0
11 *14:13 *106:DIODE 0
12 *14:13 *145:A 0.000544874
13 *14:13 *15:9 6.96101e-05
14 *14:13 *17:11 0.000246786
15 *100:DIODE *101:DIODE 0.000285562
16 *13:9 *101:DIODE 0.000213506
17 *13:9 *14:13 0.000355201
*RES
1 mgmt_gpio_in[2] *14:13 22.3 
2 *14:13 *101:DIODE 9.57 
3 *14:13 *142:A 3.6 
*END

*D_NET *15 0.00388831
*CONN
*P mgmt_gpio_in[3] I
*I *143:A I *D sky130_fd_sc_hd__clkbuf_8
*I *102:DIODE I *D sky130_fd_sc_hd__diode_2
*CAP
1 mgmt_gpio_in[3] 0.000545803
2 *143:A 0
3 *102:DIODE 0.000418567
4 *15:9 0.00096437
5 *102:DIODE mgmt_gpio_in_buf[2] 0
6 *102:DIODE mgmt_gpio_in_buf[6] 0
7 *102:DIODE mgmt_gpio_out_buf[4] 0.000515291
8 *15:9 mgmt_gpio_in_buf[10] 0.000499063
9 *15:9 mgmt_gpio_in_buf[11] 0
10 *15:9 mgmt_gpio_in_buf[16] 0.00032454
11 *15:9 mgmt_gpio_in_buf[6] 0.000331364
12 *15:9 mgmt_gpio_out_buf[3] 3.02513e-05
13 *15:9 mgmt_gpio_out_buf[4] 0
14 *15:9 *145:A 0.000111958
15 *15:9 *17:11 7.74981e-05
16 *14:13 *15:9 6.96101e-05
*RES
1 mgmt_gpio_in[3] *15:9 16.49 
2 *15:9 *102:DIODE 13.745 
3 *15:9 *143:A 1.6 
*END

*D_NET *16 0.00270962
*CONN
*P mgmt_gpio_in[4] I
*I *144:A I *D sky130_fd_sc_hd__clkbuf_8
*I *103:DIODE I *D sky130_fd_sc_hd__diode_2
*CAP
1 mgmt_gpio_in[4] 0.000213746
2 *144:A 6.0148e-05
3 *103:DIODE 9.1453e-05
4 *16:5 0.000365347
5 *103:DIODE mgmt_gpio_out_buf[3] 0.000111448
6 *103:DIODE mgmt_gpio_out_buf[4] 0.000109782
7 *144:A *18:22 0.000119242
8 *16:5 mgmt_gpio_out_buf[3] 0.000815246
9 *16:5 mgmt_gpio_out_buf[4] 0.00082321
*RES
1 mgmt_gpio_in[4] *16:5 9.615 
2 *16:5 *103:DIODE 5.43 
3 *16:5 *144:A 4.74 
*END

*D_NET *17 0.00362124
*CONN
*P mgmt_gpio_in[5] I
*I *104:DIODE I *D sky130_fd_sc_hd__diode_2
*I *145:A I *D sky130_fd_sc_hd__clkbuf_8
*CAP
1 mgmt_gpio_in[5] 0.00064503
2 *104:DIODE 4.78063e-05
3 *145:A 0.000243152
4 *17:11 0.000935989
5 *145:A mgmt_gpio_in_buf[16] 0.000225396
6 *145:A mgmt_gpio_in_buf[6] 0.000112559
7 *17:11 mgmt_gpio_in_buf[16] 9.68348e-05
8 *17:11 mgmt_gpio_out_buf[3] 0
9 *17:11 mgmt_gpio_out_buf[5] 9.90053e-05
10 *17:11 mgmt_gpio_out_buf[6] 7.53941e-05
11 *17:11 *19:14 0.00015896
12 *14:13 *145:A 0.000544874
13 *14:13 *17:11 0.000246786
14 *15:9 *145:A 0.000111958
15 *15:9 *17:11 7.74981e-05
*RES
1 mgmt_gpio_in[5] *17:11 14.5 
2 *17:11 *145:A 10.875 
3 *17:11 *104:DIODE 4.05 
*END

*D_NET *18 0.00413822
*CONN
*P mgmt_gpio_in[6] I
*I *105:DIODE I *D sky130_fd_sc_hd__diode_2
*I *146:A I *D sky130_fd_sc_hd__clkbuf_8
*CAP
1 mgmt_gpio_in[6] 0.000718364
2 *105:DIODE 0.000285015
3 *146:A 0
4 *18:22 0.00100338
5 *105:DIODE mgmt_gpio_in_buf[17] 0.000285732
6 *105:DIODE mgmt_gpio_in_buf[6] 4.66108e-05
7 *18:22 mgmt_gpio_in_buf[15] 7.71989e-05
8 *18:22 mgmt_gpio_in_buf[16] 2.76356e-05
9 *18:22 mgmt_gpio_in_buf[17] 0.000264583
10 *18:22 mgmt_gpio_out_buf[3] 0
11 *18:22 mgmt_gpio_out_buf[5] 0.000424176
12 *18:22 mgmt_gpio_out_buf[6] 0.000599731
13 *18:22 mgmt_gpio_out_buf[7] 0
14 *18:22 *149:A 0.000198741
15 *18:22 *19:14 0
16 *144:A *18:22 0.000119242
17 *151:A *18:22 8.78129e-05
*RES
1 mgmt_gpio_in[6] *18:22 26.71 
2 *18:22 *146:A 1.6 
3 *18:22 *105:DIODE 7.24 
*END

*D_NET *19 0.00378376
*CONN
*P mgmt_gpio_in[7] I
*I *106:DIODE I *D sky130_fd_sc_hd__diode_2
*I *147:A I *D sky130_fd_sc_hd__clkbuf_8
*CAP
1 mgmt_gpio_in[7] 0.000825539
2 *106:DIODE 0.000321617
3 *147:A 0
4 *19:14 0.00114716
5 *106:DIODE mgmt_gpio_in_buf[16] 3.57349e-05
6 *106:DIODE mgmt_gpio_out_buf[2] 9.02927e-05
7 *19:14 mgmt_gpio_in_buf[15] 7.59555e-05
8 *19:14 mgmt_gpio_in_buf[16] 0.000376504
9 *19:14 mgmt_gpio_out_buf[3] 0.000467191
10 *19:14 mgmt_gpio_out_buf[5] 6.35272e-05
11 *19:14 mgmt_gpio_out_buf[7] 0.00015311
12 *19:14 mgmt_gpio_out_buf[8] 6.81725e-05
13 *14:13 *106:DIODE 0
14 *17:11 *19:14 0.00015896
15 *18:22 *19:14 0
*RES
1 mgmt_gpio_in[7] *19:14 22.35 
2 *19:14 *147:A 1.6 
3 *19:14 *106:DIODE 10.04 
*END

*D_NET *20 0.00261176
*CONN
*P mgmt_gpio_in[8] I
*I *149:A I *D sky130_fd_sc_hd__clkbuf_8
*I *108:DIODE I *D sky130_fd_sc_hd__diode_2
*CAP
1 mgmt_gpio_in[8] 0.00036113
2 *149:A 0.000324493
3 *108:DIODE 0
4 *20:10 0.000685623
5 *149:A mgmt_gpio_in_buf[12] 0.000111755
6 *149:A mgmt_gpio_in_buf[13] 0
7 *149:A mgmt_gpio_in_buf[14] 0
8 *149:A mgmt_gpio_in_buf[15] 0.000119762
9 *149:A mgmt_gpio_in_buf[16] 0.000120923
10 *149:A mgmt_gpio_out_buf[6] 2.82589e-05
11 *20:10 mgmt_gpio_out_buf[14] 0
12 *20:10 mgmt_gpio_out_buf[7] 0
13 *20:10 mgmt_gpio_out_buf[8] 0.000239348
14 *20:10 mgmt_gpio_out_buf[9] 0
15 *152:A *149:A 0.00011138
16 *152:A *20:10 0.00031035
17 *18:22 *149:A 0.000198741
*RES
1 mgmt_gpio_in[8] *20:10 8.39 
2 *20:10 *108:DIODE 1.6 
3 *20:10 *149:A 12.32 
*END

*D_NET *21 0.00429819
*CONN
*P mgmt_gpio_in[9] I
*I *150:A I *D sky130_fd_sc_hd__clkbuf_8
*I *109:DIODE I *D sky130_fd_sc_hd__diode_2
*CAP
1 mgmt_gpio_in[9] 0.000220622
2 *150:A 0.000888407
3 *109:DIODE 0.00031282
4 *21:7 0.00142185
5 *150:A mgmt_gpio_in_buf[11] 4.66108e-05
6 *150:A mgmt_gpio_in_buf[14] 0.00015896
7 *150:A mgmt_gpio_out_buf[7] 0.00013521
8 *150:A mgmt_gpio_out_buf[8] 0.000132462
9 *21:7 mgmt_gpio_out_buf[10] 0
10 *21:7 mgmt_gpio_out_buf[9] 0.000228828
11 *152:A *150:A 0.000452847
12 *153:A *109:DIODE 7.67194e-05
13 *153:A *150:A 0.000145498
14 *154:A *109:DIODE 7.73629e-05
*RES
1 mgmt_gpio_in[9] *21:7 6.77 
2 *21:7 *109:DIODE 5.5 
3 *21:7 *150:A 20.555 
*END

*D_NET *22 0.00303226
*CONN
*P mgmt_gpio_in_buf[0] O
*I *140:X O *D sky130_fd_sc_hd__clkbuf_8
*CAP
1 mgmt_gpio_in_buf[0] 0.000666166
2 *140:X 0.000666166
3 mgmt_gpio_in_buf[0] mgmt_gpio_in_buf[1] 0.000726081
4 mgmt_gpio_in_buf[0] mgmt_gpio_in_buf[3] 0.000330905
5 mgmt_gpio_in_buf[0] *43:10 0.000236632
6 mgmt_gpio_in_buf[0] *51:34 9.11511e-05
7 mgmt_gpio_in_buf[0] *52:12 0.000315161
*RES
1 *140:X mgmt_gpio_in_buf[0] 13.6477 
*END

*D_NET *23 0.00320427
*CONN
*P mgmt_gpio_in_buf[10] O
*I *151:X O *D sky130_fd_sc_hd__clkbuf_8
*CAP
1 mgmt_gpio_in_buf[10] 0.00103225
2 *151:X 0.00103225
3 mgmt_gpio_in_buf[10] mgmt_gpio_in_buf[11] 0.000572413
4 mgmt_gpio_in_buf[10] mgmt_gpio_in_buf[8] 0
5 mgmt_gpio_in_buf[10] mgmt_gpio_in_buf[9] 6.82947e-05
6 mgmt_gpio_in_buf[10] mgmt_gpio_out_buf[4] 0
7 *15:9 mgmt_gpio_in_buf[10] 0.000499063
*RES
1 *151:X mgmt_gpio_in_buf[10] 12.5125 
*END

*D_NET *24 0.00366533
*CONN
*P mgmt_gpio_in_buf[11] O
*I *152:X O *D sky130_fd_sc_hd__clkbuf_8
*CAP
1 mgmt_gpio_in_buf[11] 0.00105782
2 *152:X 0.00105782
3 mgmt_gpio_in_buf[11] mgmt_gpio_in_buf[12] 0.000263368
4 mgmt_gpio_in_buf[11] mgmt_gpio_out_buf[4] 0.000667301
5 mgmt_gpio_in_buf[10] mgmt_gpio_in_buf[11] 0.000572413
6 *150:A mgmt_gpio_in_buf[11] 4.66108e-05
7 *15:9 mgmt_gpio_in_buf[11] 0
*RES
1 *152:X mgmt_gpio_in_buf[11] 13.9956 
*END

*D_NET *25 0.00362895
*CONN
*P mgmt_gpio_in_buf[12] O
*I *153:X O *D sky130_fd_sc_hd__clkbuf_8
*CAP
1 mgmt_gpio_in_buf[12] 0.00129548
2 *153:X 0.00129548
3 mgmt_gpio_in_buf[12] mgmt_gpio_in_buf[13] 0.000322443
4 mgmt_gpio_in_buf[12] mgmt_gpio_out_buf[6] 0.000340437
5 mgmt_gpio_in_buf[12] mgmt_gpio_out_buf[7] 0
6 mgmt_gpio_in_buf[11] mgmt_gpio_in_buf[12] 0.000263368
7 *149:A mgmt_gpio_in_buf[12] 0.000111755
*RES
1 *153:X mgmt_gpio_in_buf[12] 10.4198 
*END

*D_NET *26 0.00499567
*CONN
*P mgmt_gpio_in_buf[13] O
*I *154:X O *D sky130_fd_sc_hd__clkbuf_8
*CAP
1 mgmt_gpio_in_buf[13] 0.00149003
2 *154:X 0.00149003
3 mgmt_gpio_in_buf[13] mgmt_gpio_in_buf[14] 0.00124029
4 mgmt_gpio_in_buf[13] mgmt_gpio_out_buf[7] 9.64666e-05
5 mgmt_gpio_in_buf[12] mgmt_gpio_in_buf[13] 0.000322443
6 *149:A mgmt_gpio_in_buf[13] 0
7 *151:A mgmt_gpio_in_buf[13] 4.82863e-05
8 *153:A mgmt_gpio_in_buf[13] 0.000308124
*RES
1 *154:X mgmt_gpio_in_buf[13] 12.5048 
*END

*D_NET *27 0.00541083
*CONN
*P mgmt_gpio_in_buf[14] O
*I *155:X O *D sky130_fd_sc_hd__clkbuf_8
*CAP
1 mgmt_gpio_in_buf[14] 0.00158467
2 *155:X 0.00158467
3 mgmt_gpio_in_buf[14] mgmt_gpio_in_buf[15] 0.000240695
4 mgmt_gpio_in_buf[14] mgmt_gpio_out_buf[7] 1.08194e-05
5 mgmt_gpio_in_buf[13] mgmt_gpio_in_buf[14] 0.00124029
6 *149:A mgmt_gpio_in_buf[14] 0
7 *150:A mgmt_gpio_in_buf[14] 0.00015896
8 *151:A mgmt_gpio_in_buf[14] 0.000137148
9 *152:A mgmt_gpio_in_buf[14] 0.000148019
10 *4:12 mgmt_gpio_in_buf[14] 0.000305549
*RES
1 *155:X mgmt_gpio_in_buf[14] 13.3809 
*END

*D_NET *28 0.00447584
*CONN
*P mgmt_gpio_in_buf[15] O
*I *156:X O *D sky130_fd_sc_hd__clkbuf_8
*CAP
1 mgmt_gpio_in_buf[15] 0.0017535
2 *156:X 0.0017535
3 mgmt_gpio_in_buf[15] mgmt_gpio_in_buf[16] 0.000365216
4 mgmt_gpio_in_buf[15] mgmt_gpio_in_buf[18] 0
5 mgmt_gpio_in_buf[14] mgmt_gpio_in_buf[15] 0.000240695
6 *149:A mgmt_gpio_in_buf[15] 0.000119762
7 *157:A mgmt_gpio_in_buf[15] 9.00151e-05
8 *18:22 mgmt_gpio_in_buf[15] 7.71989e-05
9 *19:14 mgmt_gpio_in_buf[15] 7.59555e-05
*RES
1 *156:X mgmt_gpio_in_buf[15] 16.8652 
*END

*D_NET *29 0.00374155
*CONN
*P mgmt_gpio_in_buf[16] O
*I *157:X O *D sky130_fd_sc_hd__clkbuf_8
*CAP
1 mgmt_gpio_in_buf[16] 0.00100628
2 *157:X 0.00100628
3 mgmt_gpio_in_buf[16] mgmt_gpio_in_buf[17] 7.38591e-05
4 mgmt_gpio_in_buf[16] mgmt_gpio_in_buf[18] 0
5 mgmt_gpio_in_buf[16] mgmt_gpio_in_buf[8] 8.23457e-05
6 mgmt_gpio_in_buf[15] mgmt_gpio_in_buf[16] 0.000365216
7 *106:DIODE mgmt_gpio_in_buf[16] 3.57349e-05
8 *145:A mgmt_gpio_in_buf[16] 0.000225396
9 *149:A mgmt_gpio_in_buf[16] 0.000120923
10 *15:9 mgmt_gpio_in_buf[16] 0.00032454
11 *17:11 mgmt_gpio_in_buf[16] 9.68348e-05
12 *18:22 mgmt_gpio_in_buf[16] 2.76356e-05
13 *19:14 mgmt_gpio_in_buf[16] 0.000376504
*RES
1 *157:X mgmt_gpio_in_buf[16] 17.0977 
*END

*D_NET *30 0.00466653
*CONN
*P mgmt_gpio_in_buf[17] O
*I *158:X O *D sky130_fd_sc_hd__clkbuf_8
*CAP
1 mgmt_gpio_in_buf[17] 0.00122537
2 *158:X 0.00122537
3 mgmt_gpio_in_buf[17] mgmt_gpio_in_buf[18] 0.000201942
4 mgmt_gpio_in_buf[17] mgmt_gpio_in_buf[6] 4.66108e-05
5 mgmt_gpio_in_buf[17] mgmt_gpio_in_buf[8] 3.17619e-05
6 mgmt_gpio_in_buf[17] mgmt_gpio_out_buf[2] 0.00026447
7 mgmt_gpio_in_buf[17] mgmt_gpio_out_buf[5] 5.39718e-05
8 mgmt_gpio_in_buf[16] mgmt_gpio_in_buf[17] 7.38591e-05
9 *105:DIODE mgmt_gpio_in_buf[17] 0.000285732
10 *3:11 mgmt_gpio_in_buf[17] 0.000256927
11 *13:9 mgmt_gpio_in_buf[17] 0.000735923
12 *18:22 mgmt_gpio_in_buf[17] 0.000264583
*RES
1 *158:X mgmt_gpio_in_buf[17] 26.9922 
*END

*D_NET *31 0.00534775
*CONN
*P mgmt_gpio_in_buf[18] O
*I *160:X O *D sky130_fd_sc_hd__clkbuf_8
*CAP
1 mgmt_gpio_in_buf[18] 0.00255891
2 *160:X 0.00255891
3 mgmt_gpio_in_buf[18] mgmt_gpio_in_buf[8] 2.79807e-05
4 mgmt_gpio_in_buf[18] mgmt_gpio_out_buf[5] 0
5 mgmt_gpio_in_buf[15] mgmt_gpio_in_buf[18] 0
6 mgmt_gpio_in_buf[16] mgmt_gpio_in_buf[18] 0
7 mgmt_gpio_in_buf[17] mgmt_gpio_in_buf[18] 0.000201942
*RES
1 *160:X mgmt_gpio_in_buf[18] 9.41623 
*END

*D_NET *32 0.00351199
*CONN
*P mgmt_gpio_in_buf[1] O
*I *141:X O *D sky130_fd_sc_hd__clkbuf_8
*CAP
1 mgmt_gpio_in_buf[1] 0.000669569
2 *141:X 0.000669569
3 mgmt_gpio_in_buf[1] mgmt_gpio_in_buf[2] 0.00125079
4 mgmt_gpio_in_buf[1] mgmt_gpio_in_buf[3] 1.46216e-05
5 mgmt_gpio_in_buf[1] mgmt_gpio_in_buf[6] 0.00013006
6 mgmt_gpio_in_buf[1] mgmt_gpio_out_buf[2] 2.49909e-05
7 mgmt_gpio_in_buf[1] *43:10 0
8 mgmt_gpio_in_buf[1] *51:34 2.63078e-05
9 mgmt_gpio_in_buf[0] mgmt_gpio_in_buf[1] 0.000726081
*RES
1 *141:X mgmt_gpio_in_buf[1] 14.0631 
*END

*D_NET *33 0.00360311
*CONN
*P mgmt_gpio_in_buf[2] O
*I *142:X O *D sky130_fd_sc_hd__clkbuf_8
*CAP
1 mgmt_gpio_in_buf[2] 0.000910155
2 *142:X 0.000910155
3 mgmt_gpio_in_buf[2] mgmt_gpio_in_buf[3] 0.000213603
4 mgmt_gpio_in_buf[2] mgmt_gpio_in_buf[4] 0
5 mgmt_gpio_in_buf[2] mgmt_gpio_in_buf[6] 9.8998e-05
6 mgmt_gpio_in_buf[2] mgmt_gpio_out_buf[1] 3.1835e-05
7 mgmt_gpio_in_buf[2] mgmt_gpio_out_buf[4] 0
8 mgmt_gpio_in_buf[2] *148:A 0
9 mgmt_gpio_in_buf[2] *43:10 0
10 mgmt_gpio_in_buf[2] *51:34 0.000187569
11 mgmt_gpio_in_buf[2] *58:11 0
12 mgmt_gpio_in_buf[1] mgmt_gpio_in_buf[2] 0.00125079
13 *102:DIODE mgmt_gpio_in_buf[2] 0
*RES
1 *142:X mgmt_gpio_in_buf[2] 16.2514 
*END

*D_NET *34 0.00349546
*CONN
*P mgmt_gpio_in_buf[3] O
*I *143:X O *D sky130_fd_sc_hd__clkbuf_8
*CAP
1 mgmt_gpio_in_buf[3] 0.000853521
2 *143:X 0.000853521
3 mgmt_gpio_in_buf[3] mgmt_gpio_in_buf[4] 0.000233814
4 mgmt_gpio_in_buf[3] mgmt_gpio_in_buf[5] 0.000521341
5 mgmt_gpio_in_buf[3] mgmt_gpio_in_buf[6] 0.000474133
6 mgmt_gpio_in_buf[0] mgmt_gpio_in_buf[3] 0.000330905
7 mgmt_gpio_in_buf[1] mgmt_gpio_in_buf[3] 1.46216e-05
8 mgmt_gpio_in_buf[2] mgmt_gpio_in_buf[3] 0.000213603
9 *100:DIODE mgmt_gpio_in_buf[3] 0
10 *101:DIODE mgmt_gpio_in_buf[3] 0
*RES
1 *143:X mgmt_gpio_in_buf[3] 17.0394 
*END

*D_NET *35 0.0051423
*CONN
*P mgmt_gpio_in_buf[4] O
*I *144:X O *D sky130_fd_sc_hd__clkbuf_8
*CAP
1 mgmt_gpio_in_buf[4] 0.00167138
2 *144:X 0.00167138
3 mgmt_gpio_in_buf[4] mgmt_gpio_in_buf[5] 0.000199347
4 mgmt_gpio_in_buf[4] mgmt_gpio_in_buf[6] 1.38977e-05
5 mgmt_gpio_in_buf[4] mgmt_gpio_out_buf[16] 4.02448e-06
6 mgmt_gpio_in_buf[4] mgmt_gpio_out_buf[6] 0.000788663
7 mgmt_gpio_in_buf[4] mgmt_gpio_out_buf[7] 0
8 mgmt_gpio_in_buf[4] *128:A 0.000188371
9 mgmt_gpio_in_buf[4] *159:A 0
10 mgmt_gpio_in_buf[4] *65:16 0
11 mgmt_gpio_in_buf[2] mgmt_gpio_in_buf[4] 0
12 mgmt_gpio_in_buf[3] mgmt_gpio_in_buf[4] 0.000233814
13 *158:A mgmt_gpio_in_buf[4] 0
14 *160:A mgmt_gpio_in_buf[4] 0.000371423
*RES
1 *144:X mgmt_gpio_in_buf[4] 19.4002 
*END

*D_NET *36 0.00308719
*CONN
*P mgmt_gpio_in_buf[5] O
*I *145:X O *D sky130_fd_sc_hd__clkbuf_8
*CAP
1 mgmt_gpio_in_buf[5] 0.000827498
2 *145:X 0.000827498
3 mgmt_gpio_in_buf[5] mgmt_gpio_in_buf[6] 0.00059665
4 mgmt_gpio_in_buf[5] mgmt_gpio_in_buf[7] 0
5 mgmt_gpio_in_buf[3] mgmt_gpio_in_buf[5] 0.000521341
6 mgmt_gpio_in_buf[4] mgmt_gpio_in_buf[5] 0.000199347
7 *101:DIODE mgmt_gpio_in_buf[5] 0
8 *14:13 mgmt_gpio_in_buf[5] 0.000114858
*RES
1 *145:X mgmt_gpio_in_buf[5] 15.5233 
*END

*D_NET *37 0.00354216
*CONN
*P mgmt_gpio_in_buf[6] O
*I *146:X O *D sky130_fd_sc_hd__clkbuf_8
*CAP
1 mgmt_gpio_in_buf[6] 0.000793624
2 *146:X 0.000793624
3 mgmt_gpio_in_buf[6] mgmt_gpio_in_buf[7] 0.000104028
4 mgmt_gpio_in_buf[6] mgmt_gpio_in_buf[8] 0
5 mgmt_gpio_in_buf[17] mgmt_gpio_in_buf[6] 4.66108e-05
6 mgmt_gpio_in_buf[1] mgmt_gpio_in_buf[6] 0.00013006
7 mgmt_gpio_in_buf[2] mgmt_gpio_in_buf[6] 9.8998e-05