*SPEF "ieee 1481-1999"
*DESIGN "mprj_io_buffer"
*DATE "11:11:11 Fri 11 11, 1111"
*VENDOR "OpenRCX"
*PROGRAM "Parallel Extraction"
*VERSION "1.0"
*DESIGN_FLOW "NAME_SCOPE LOCAL" "PIN_CAP NONE"
*DIVIDER /
*DELIMITER :
*BUS_DELIMITER []
*T_UNIT 1 NS
*C_UNIT 1 PF
*R_UNIT 1 OHM
*L_UNIT 1 HENRY

*NAME_MAP
*3 mgmt_gpio_in[0]
*4 mgmt_gpio_in[10]
*5 mgmt_gpio_in[11]
*6 mgmt_gpio_in[12]
*7 mgmt_gpio_in[13]
*8 mgmt_gpio_in[14]
*9 mgmt_gpio_in[15]
*10 mgmt_gpio_in[16]
*11 mgmt_gpio_in[17]
*12 mgmt_gpio_in[18]
*13 mgmt_gpio_in[1]
*14 mgmt_gpio_in[2]
*15 mgmt_gpio_in[3]
*16 mgmt_gpio_in[4]
*17 mgmt_gpio_in[5]
*18 mgmt_gpio_in[6]
*19 mgmt_gpio_in[7]
*20 mgmt_gpio_in[8]
*21 mgmt_gpio_in[9]
*22 mgmt_gpio_in_buf[0]
*23 mgmt_gpio_in_buf[10]
*24 mgmt_gpio_in_buf[11]
*25 mgmt_gpio_in_buf[12]
*26 mgmt_gpio_in_buf[13]
*27 mgmt_gpio_in_buf[14]
*28 mgmt_gpio_in_buf[15]
*29 mgmt_gpio_in_buf[16]
*30 mgmt_gpio_in_buf[17]
*31 mgmt_gpio_in_buf[18]
*32 mgmt_gpio_in_buf[1]
*33 mgmt_gpio_in_buf[2]
*34 mgmt_gpio_in_buf[3]
*35 mgmt_gpio_in_buf[4]
*36 mgmt_gpio_in_buf[5]
*37 mgmt_gpio_in_buf[6]
*38 mgmt_gpio_in_buf[7]
*39 mgmt_gpio_in_buf[8]
*40 mgmt_gpio_in_buf[9]
*41 mgmt_gpio_oeb[0]
*42 mgmt_gpio_oeb[1]
*43 mgmt_gpio_oeb[2]
*44 mgmt_gpio_oeb_buf[0]
*45 mgmt_gpio_oeb_buf[1]
*46 mgmt_gpio_oeb_buf[2]
*47 mgmt_gpio_out[0]
*48 mgmt_gpio_out[10]
*49 mgmt_gpio_out[11]
*50 mgmt_gpio_out[12]
*51 mgmt_gpio_out[13]
*52 mgmt_gpio_out[14]
*53 mgmt_gpio_out[15]
*54 mgmt_gpio_out[16]
*55 mgmt_gpio_out[17]
*56 mgmt_gpio_out[18]
*57 mgmt_gpio_out[1]
*58 mgmt_gpio_out[2]
*59 mgmt_gpio_out[3]
*60 mgmt_gpio_out[4]
*61 mgmt_gpio_out[5]
*62 mgmt_gpio_out[6]
*63 mgmt_gpio_out[7]
*64 mgmt_gpio_out[8]
*65 mgmt_gpio_out[9]
*66 mgmt_gpio_out_buf[0]
*67 mgmt_gpio_out_buf[10]
*68 mgmt_gpio_out_buf[11]
*69 mgmt_gpio_out_buf[12]
*70 mgmt_gpio_out_buf[13]
*71 mgmt_gpio_out_buf[14]
*72 mgmt_gpio_out_buf[15]
*73 mgmt_gpio_out_buf[16]
*74 mgmt_gpio_out_buf[17]
*75 mgmt_gpio_out_buf[18]
*76 mgmt_gpio_out_buf[1]
*77 mgmt_gpio_out_buf[2]
*78 mgmt_gpio_out_buf[3]
*79 mgmt_gpio_out_buf[4]
*80 mgmt_gpio_out_buf[5]
*81 mgmt_gpio_out_buf[6]
*82 mgmt_gpio_out_buf[7]
*83 mgmt_gpio_out_buf[8]
*84 mgmt_gpio_out_buf[9]
*85 ANTENNA_BUF\[0\]_A
*86 ANTENNA_BUF\[10\]_A
*87 ANTENNA_BUF\[11\]_A
*88 ANTENNA_BUF\[12\]_A
*89 ANTENNA_BUF\[13\]_A
*90 ANTENNA_BUF\[14\]_A
*91 ANTENNA_BUF\[15\]_A
*92 ANTENNA_BUF\[16\]_A
*93 ANTENNA_BUF\[17\]_A
*94 ANTENNA_BUF\[18\]_A
*95 ANTENNA_BUF\[19\]_A
*96 ANTENNA_BUF\[1\]_A
*97 ANTENNA_BUF\[20\]_A
*98 ANTENNA_BUF\[21\]_A
*99 ANTENNA_BUF\[22\]_A
*100 ANTENNA_BUF\[23\]_A
*101 ANTENNA_BUF\[24\]_A
*102 ANTENNA_BUF\[25\]_A
*103 ANTENNA_BUF\[26\]_A
*104 ANTENNA_BUF\[27\]_A
*105 ANTENNA_BUF\[28\]_A
*106 ANTENNA_BUF\[29\]_A
*107 ANTENNA_BUF\[2\]_A
*108 ANTENNA_BUF\[30\]_A
*109 ANTENNA_BUF\[31\]_A
*110 ANTENNA_BUF\[32\]_A
*111 ANTENNA_BUF\[33\]_A
*112 ANTENNA_BUF\[34\]_A
*113 ANTENNA_BUF\[35\]_A
*114 ANTENNA_BUF\[36\]_A
*115 ANTENNA_BUF\[37\]_A
*116 ANTENNA_BUF\[38\]_A
*117 ANTENNA_BUF\[39\]_A
*118 ANTENNA_BUF\[3\]_A
*119 ANTENNA_BUF\[40\]_A
*120 ANTENNA_BUF\[4\]_A
*121 ANTENNA_BUF\[5\]_A
*122 ANTENNA_BUF\[6\]_A
*123 ANTENNA_BUF\[7\]_A
*124 ANTENNA_BUF\[8\]_A
*125 ANTENNA_BUF\[9\]_A
*126 BUF\[0\]
*127 BUF\[10\]
*128 BUF\[11\]
*129 BUF\[12\]
*130 BUF\[13\]
*131 BUF\[14\]
*132 BUF\[15\]
*133 BUF\[16\]
*134 BUF\[17\]
*135 BUF\[18\]
*136 BUF\[19\]
*137 BUF\[1\]
*138 BUF\[20\]
*139 BUF\[21\]
*140 BUF\[22\]
*141 BUF\[23\]
*142 BUF\[24\]
*143 BUF\[25\]
*144 BUF\[26\]
*145 BUF\[27\]
*146 BUF\[28\]
*147 BUF\[29\]
*148 BUF\[2\]
*149 BUF\[30\]
*150 BUF\[31\]
*151 BUF\[32\]
*152 BUF\[33\]
*153 BUF\[34\]
*154 BUF\[35\]
*155 BUF\[36\]
*156 BUF\[37\]
*157 BUF\[38\]
*158 BUF\[39\]
*159 BUF\[3\]
*160 BUF\[40\]
*161 BUF\[4\]
*162 BUF\[5\]
*163 BUF\[6\]
*164 BUF\[7\]
*165 BUF\[8\]
*166 BUF\[9\]
*167 FILLER_0_11
*168 FILLER_0_26
*169 FILLER_0_29
*170 FILLER_0_3
*171 FILLER_0_43
*172 FILLER_0_49
*173 FILLER_0_55
*174 FILLER_0_57
*175 FILLER_0_70
*176 FILLER_10_20
*177 FILLER_10_26
*178 FILLER_10_29
*179 FILLER_10_3
*180 FILLER_10_44
*181 FILLER_10_52
*182 FILLER_10_55
*183 FILLER_10_70
*184 FILLER_11_14
*185 FILLER_11_29
*186 FILLER_11_3
*187 FILLER_11_35
*188 FILLER_11_41
*189 FILLER_11_51
*190 FILLER_11_55
*191 FILLER_11_57
*192 FILLER_11_70
*193 FILLER_11_8
*194 FILLER_12_24
*195 FILLER_12_29
*196 FILLER_12_3
*197 FILLER_12_42
*198 FILLER_12_50
*199 FILLER_12_62
*200 FILLER_12_68
*201 FILLER_12_9
*202 FILLER_13_19
*203 FILLER_13_23
*204 FILLER_13_26
*205 FILLER_13_29
*206 FILLER_13_3
*207 FILLER_13_42
*208 FILLER_13_50
*209 FILLER_13_54
*210 FILLER_13_57
*211 FILLER_13_7
*212 FILLER_13_70
*213 FILLER_1_24
*214 FILLER_1_3
*215 FILLER_1_39
*216 FILLER_1_54
*217 FILLER_1_57
*218 FILLER_1_70
*219 FILLER_1_9
*220 FILLER_2_11
*221 FILLER_2_26
*222 FILLER_2_29
*223 FILLER_2_3
*224 FILLER_2_42
*225 FILLER_2_46
*226 FILLER_2_49
*227 FILLER_2_55
*228 FILLER_2_70
*229 FILLER_3_16
*230 FILLER_3_3
*231 FILLER_3_35
*232 FILLER_3_50
*233 FILLER_3_57
*234 FILLER_3_70
*235 FILLER_4_11
*236 FILLER_4_26
*237 FILLER_4_29
*238 FILLER_4_3
*239 FILLER_4_42
*240 FILLER_4_46
*241 FILLER_4_49
*242 FILLER_4_55
*243 FILLER_4_70
*244 FILLER_5_11
*245 FILLER_5_17
*246 FILLER_5_23
*247 FILLER_5_3
*248 FILLER_5_38
*249 FILLER_5_53
*250 FILLER_5_57
*251 FILLER_5_70
*252 FILLER_6_11
*253 FILLER_6_26
*254 FILLER_6_29
*255 FILLER_6_3
*256 FILLER_6_42
*257 FILLER_6_46
*258 FILLER_6_49
*259 FILLER_6_55
*260 FILLER_6_70
*261 FILLER_7_12
*262 FILLER_7_18
*263 FILLER_7_24
*264 FILLER_7_3
*265 FILLER_7_39
*266 FILLER_7_54
*267 FILLER_7_57
*268 FILLER_7_70
*269 FILLER_7_9
*270 FILLER_8_11
*271 FILLER_8_14
*272 FILLER_8_20
*273 FILLER_8_26
*274 FILLER_8_29
*275 FILLER_8_3
*276 FILLER_8_42
*277 FILLER_8_48
*278 FILLER_8_52
*279 FILLER_8_55
*280 FILLER_8_7
*281 FILLER_8_70
*282 FILLER_9_15
*283 FILLER_9_3
*284 FILLER_9_30
*285 FILLER_9_36
*286 FILLER_9_42
*287 FILLER_9_48
*288 FILLER_9_54
*289 FILLER_9_57
*290 FILLER_9_70
*291 FILLER_9_9
*292 PHY_0
*293 PHY_1
*294 PHY_10
*295 PHY_11
*296 PHY_12
*297 PHY_13
*298 PHY_14
*299 PHY_15
*300 PHY_16
*301 PHY_17
*302 PHY_18
*303 PHY_19
*304 PHY_2
*305 PHY_20
*306 PHY_21
*307 PHY_22
*308 PHY_23
*309 PHY_24
*310 PHY_25
*311 PHY_26
*312 PHY_27
*313 PHY_3
*314 PHY_4
*315 PHY_5
*316 PHY_6
*317 PHY_7
*318 PHY_8
*319 PHY_9
*320 TAP_28
*321 TAP_29
*322 TAP_30
*323 TAP_31
*324 TAP_32
*325 TAP_33
*326 TAP_34
*327 TAP_35
*328 TAP_36
*329 TAP_37
*330 TAP_38
*331 TAP_39
*332 TAP_40
*333 TAP_41
*334 TAP_42
*335 TAP_43

*PORTS
mgmt_gpio_in[0] I
mgmt_gpio_in[10] I
mgmt_gpio_in[11] I
mgmt_gpio_in[12] I
mgmt_gpio_in[13] I
mgmt_gpio_in[14] I
mgmt_gpio_in[15] I
mgmt_gpio_in[16] I
mgmt_gpio_in[17] I
mgmt_gpio_in[18] I
mgmt_gpio_in[1] I
mgmt_gpio_in[2] I
mgmt_gpio_in[3] I
mgmt_gpio_in[4] I
mgmt_gpio_in[5] I
mgmt_gpio_in[6] I
mgmt_gpio_in[7] I
mgmt_gpio_in[8] I
mgmt_gpio_in[9] I
mgmt_gpio_in_buf[0] O
mgmt_gpio_in_buf[10] O
mgmt_gpio_in_buf[11] O
mgmt_gpio_in_buf[12] O
mgmt_gpio_in_buf[13] O
mgmt_gpio_in_buf[14] O
mgmt_gpio_in_buf[15] O
mgmt_gpio_in_buf[16] O
mgmt_gpio_in_buf[17] O
mgmt_gpio_in_buf[18] O
mgmt_gpio_in_buf[1] O
mgmt_gpio_in_buf[2] O
mgmt_gpio_in_buf[3] O
mgmt_gpio_in_buf[4] O
mgmt_gpio_in_buf[5] O
mgmt_gpio_in_buf[6] O
mgmt_gpio_in_buf[7] O
mgmt_gpio_in_buf[8] O
mgmt_gpio_in_buf[9] O
mgmt_gpio_oeb[0] I
mgmt_gpio_oeb[1] I
mgmt_gpio_oeb[2] I
mgmt_gpio_oeb_buf[0] O
mgmt_gpio_oeb_buf[1] O
mgmt_gpio_oeb_buf[2] O
mgmt_gpio_out[0] I
mgmt_gpio_out[10] I
mgmt_gpio_out[11] I
mgmt_gpio_out[12] I
mgmt_gpio_out[13] I
mgmt_gpio_out[14] I
mgmt_gpio_out[15] I
mgmt_gpio_out[16] I
mgmt_gpio_out[17] I
mgmt_gpio_out[18] I
mgmt_gpio_out[1] I
mgmt_gpio_out[2] I
mgmt_gpio_out[3] I
mgmt_gpio_out[4] I
mgmt_gpio_out[5] I
mgmt_gpio_out[6] I
mgmt_gpio_out[7] I
mgmt_gpio_out[8] I
mgmt_gpio_out[9] I
mgmt_gpio_out_buf[0] O
mgmt_gpio_out_buf[10] O
mgmt_gpio_out_buf[11] O
mgmt_gpio_out_buf[12] O
mgmt_gpio_out_buf[13] O
mgmt_gpio_out_buf[14] O
mgmt_gpio_out_buf[15] O
mgmt_gpio_out_buf[16] O
mgmt_gpio_out_buf[17] O
mgmt_gpio_out_buf[18] O
mgmt_gpio_out_buf[1] O
mgmt_gpio_out_buf[2] O
mgmt_gpio_out_buf[3] O
mgmt_gpio_out_buf[4] O
mgmt_gpio_out_buf[5] O
mgmt_gpio_out_buf[6] O
mgmt_gpio_out_buf[7] O
mgmt_gpio_out_buf[8] O
mgmt_gpio_out_buf[9] O

*D_NET *3 0.0117752
*CONN
*P mgmt_gpio_in[0] I
*I *140:A I *D sky130_fd_sc_hd__clkbuf_8
*I *99:DIODE I *D sky130_fd_sc_hd__diode_2
*CAP
1 mgmt_gpio_in[0] 0.00164495
2 *140:A 0.000342809
3 *99:DIODE 0.00160308
4 *3:10 0.00359084
5 *99:DIODE mgmt_gpio_out_buf[6] 7.44316e-05
6 *99:DIODE *124:DIODE 9.83388e-05
7 *99:DIODE *144:A 0.000352414
8 *99:DIODE *163:A 0.000135391
9 *99:DIODE *48:11 0.000292708
10 *99:DIODE *68:21 9.69399e-05
11 *99:DIODE *80:13 0.000290993
12 *140:A *141:A 0.000799202
13 *140:A *41:11 9.90367e-05
14 *140:A *51:12 8.18775e-05
15 *140:A *52:8 0.00106235
16 *3:10 mgmt_gpio_out_buf[0] 0.000331216
17 *3:10 mgmt_gpio_out_buf[1] 0
18 *3:10 *13:19 0
19 *3:10 *53:14 0.00087864
*RES
1 mgmt_gpio_in[0] *3:10 34.8214 
2 *3:10 *99:DIODE 42.8536 
3 *3:10 *140:A 32.7286 
*END

*D_NET *4 0.00265736
*CONN
*P mgmt_gpio_in[10] I
*I *110:DIODE I *D sky130_fd_sc_hd__diode_2
*I *151:A I *D sky130_fd_sc_hd__clkbuf_8
*CAP
1 mgmt_gpio_in[10] 0.000473085
2 *110:DIODE 7.57307e-05
3 *151:A 0
4 *4:8 0.000548816
5 *110:DIODE mgmt_gpio_in_buf[11] 3.97677e-05
6 *110:DIODE mgmt_gpio_out_buf[7] 0.000125724
7 *110:DIODE *19:10 0.000125724
8 *110:DIODE *21:14 9.41642e-05
9 *4:8 mgmt_gpio_in_buf[11] 0.000211434
10 *4:8 mgmt_gpio_out_buf[10] 0.000434118
11 *4:8 mgmt_gpio_out_buf[11] 0.000174892
12 *4:8 *21:14 0.000353908
*RES
1 mgmt_gpio_in[10] *4:8 17.7857 
2 *4:8 *151:A 9.3 
3 *4:8 *110:DIODE 20.8893 
*END

*D_NET *5 0.00149624
*CONN
*P mgmt_gpio_in[11] I
*I *111:DIODE I *D sky130_fd_sc_hd__diode_2
*I *152:A I *D sky130_fd_sc_hd__clkbuf_8
*CAP
1 mgmt_gpio_in[11] 0.000260492
2 *111:DIODE 0.000116944
3 *152:A 0.00010175
4 *5:7 0.000479186
5 *152:A mgmt_gpio_out_buf[11] 7.98318e-05
6 *152:A *114:DIODE 0
7 *5:7 mgmt_gpio_out_buf[11] 0.000443759
8 *5:7 mgmt_gpio_out_buf[12] 0
9 *5:7 *114:DIODE 0
10 *5:7 *155:A 1.42791e-05
*RES
1 mgmt_gpio_in[11] *5:7 6.625 
2 *5:7 *152:A 15.7821 
3 *5:7 *111:DIODE 15.1571 
*END

*D_NET *6 0.00273616
*CONN
*P mgmt_gpio_in[12] I
*I *153:A I *D sky130_fd_sc_hd__clkbuf_8
*I *112:DIODE I *D sky130_fd_sc_hd__diode_2
*CAP
1 mgmt_gpio_in[12] 0.000292022
2 *153:A 0.000167932
3 *112:DIODE 0.000208875
4 *6:5 0.000668828
5 *112:DIODE mgmt_gpio_out_buf[12] 0.000126439
6 *112:DIODE mgmt_gpio_out_buf[13] 4.79842e-05
7 *6:5 mgmt_gpio_out_buf[12] 0.000901716
8 *6:5 mgmt_gpio_out_buf[13] 0.000322361
*RES
1 mgmt_gpio_in[12] *6:5 11.4464 
2 *6:5 *112:DIODE 17.2107 
3 *6:5 *153:A 16.3893 
*END

*D_NET *7 0.00308292
*CONN
*P mgmt_gpio_in[13] I
*I *113:DIODE I *D sky130_fd_sc_hd__diode_2
*I *154:A I *D sky130_fd_sc_hd__clkbuf_8
*CAP
1 mgmt_gpio_in[13] 0.00107276
2 *113:DIODE 0
3 *154:A 0.000153308
4 *7:10 0.00122607
5 *154:A mgmt_gpio_in_buf[14] 0.000164152
6 *154:A *20:10 9.58126e-05
7 *7:10 mgmt_gpio_in_buf[14] 0.000109423
8 *7:10 mgmt_gpio_out_buf[12] 0
9 *7:10 mgmt_gpio_out_buf[13] 0.000261396
*RES
1 mgmt_gpio_in[13] *7:10 19.0893 
2 *7:10 *154:A 12.7286 
3 *7:10 *113:DIODE 9.3 
*END

*D_NET *8 0.00136379
*CONN
*P mgmt_gpio_in[14] I
*I *155:A I *D sky130_fd_sc_hd__clkbuf_8
*I *114:DIODE I *D sky130_fd_sc_hd__diode_2
*CAP
1 mgmt_gpio_in[14] 0.000210992
2 *155:A 0.000114302
3 *114:DIODE 0.000169634
4 *8:5 0.000494928
5 *114:DIODE mgmt_gpio_out_buf[11] 0
6 *114:DIODE mgmt_gpio_out_buf[12] 0.000160182
7 *155:A mgmt_gpio_out_buf[12] 0
8 *155:A mgmt_gpio_out_buf[14] 1.59622e-05
9 *155:A mgmt_gpio_out_buf[15] 3.97953e-06
10 *8:5 mgmt_gpio_out_buf[14] 9.32279e-05
11 *8:5 mgmt_gpio_out_buf[15] 8.63011e-05
12 *152:A *114:DIODE 0
13 *5:7 *114:DIODE 0
14 *5:7 *155:A 1.42791e-05
*RES
1 mgmt_gpio_in[14] *8:5 0.7802 
2 *8:5 *114:DIODE 21.1296 
3 *8:5 *155:A 17.9815 
*END

*D_NET *9 0.00151805
*CONN
*P mgmt_gpio_in[15] I
*I *156:A I *D sky130_fd_sc_hd__clkbuf_8
*I *115:DIODE I *D sky130_fd_sc_hd__diode_2
*CAP
1 mgmt_gpio_in[15] 0.000424493
2 *156:A 0.000202873
3 *115:DIODE 0
4 *9:11 0.000627366
5 *9:11 mgmt_gpio_out_buf[11] 0
6 *9:11 mgmt_gpio_out_buf[12] 9.05964e-05
7 *9:11 mgmt_gpio_out_buf[15] 8.35073e-05
8 *9:11 mgmt_gpio_out_buf[16] 8.92165e-05
*RES
1 mgmt_gpio_in[15] *9:11 12.8056 
2 *9:11 *115:DIODE 9.3 
3 *9:11 *156:A 12.6214 
*END

*D_NET *10 0.00369407
*CONN
*P mgmt_gpio_in[16] I
*I *157:A I *D sky130_fd_sc_hd__clkbuf_8
*I *116:DIODE I *D sky130_fd_sc_hd__diode_2
*CAP
1 mgmt_gpio_in[16] 0.00108887
2 *157:A 0.000304317
3 *116:DIODE 0
4 *10:11 0.00139319
5 *157:A mgmt_gpio_in_buf[12] 0.000208478
6 *10:11 mgmt_gpio_in_buf[12] 5.03772e-05
7 *10:11 mgmt_gpio_out_buf[10] 0
8 *10:11 mgmt_gpio_out_buf[16] 0.000229667
9 *10:11 mgmt_gpio_out_buf[17] 8.49473e-05
10 *10:11 mgmt_gpio_out_buf[9] 0.000178344
11 *10:11 *11:11 0.000155881
*RES
1 mgmt_gpio_in[16] *10:11 15.3165 
2 *10:11 *116:DIODE 9.3 
3 *10:11 *157:A 13.55 
*END

*D_NET *11 0.00419229
*CONN
*P mgmt_gpio_in[17] I
*I *158:A I *D sky130_fd_sc_hd__clkbuf_8
*I *117:DIODE I *D sky130_fd_sc_hd__diode_2
*CAP
1 mgmt_gpio_in[17] 0.00122484
2 *158:A 5.46053e-05
3 *117:DIODE 0.000193814
4 *11:11 0.00147326
5 *11:11 mgmt_gpio_oeb_buf[0] 0.000213701
6 *11:11 mgmt_gpio_out_buf[10] 0
7 *11:11 mgmt_gpio_out_buf[11] 0
8 *11:11 mgmt_gpio_out_buf[16] 6.05161e-06
9 *11:11 mgmt_gpio_out_buf[18] 0.000171028
10 *11:11 mgmt_gpio_out_buf[9] 5.68312e-06
11 *11:11 *97:DIODE 0
12 *11:11 *123:DIODE 6.16744e-05
13 *11:11 *124:DIODE 6.96267e-05
14 *11:11 *163:A 7.22594e-05
15 *11:11 *62:5 0.000489874
16 *10:11 *11:11 0.000155881
*RES
1 mgmt_gpio_in[17] *11:11 21.923 
2 *11:11 *117:DIODE 11.4786 
3 *11:11 *158:A 10.3357 
*END

*D_NET *12 0.00788936
*CONN
*P mgmt_gpio_in[18] I
*I *119:DIODE I *D sky130_fd_sc_hd__diode_2
*I *160:A I *D sky130_fd_sc_hd__clkbuf_8
*CAP
1 mgmt_gpio_in[18] 0.000414159
2 *119:DIODE 0.000510749
3 *160:A 2.30855e-05
4 *12:37 0.00172637
5 *12:11 0.00165287
6 *119:DIODE mgmt_gpio_in_buf[17] 0.000178121
7 *119:DIODE mgmt_gpio_out_buf[17] 1.66754e-05
8 *119:DIODE mgmt_gpio_out_buf[7] 0.00108097
9 *119:DIODE mgmt_gpio_out_buf[8] 8.75067e-05
10 *119:DIODE *19:10 0.000267731
11 *119:DIODE *56:35 0.000140011
12 *119:DIODE *64:8 0.000128154
13 *12:11 mgmt_gpio_oeb_buf[1] 0.000110413
14 *12:11 mgmt_gpio_oeb_buf[2] 8.92165e-05
15 *12:11 *93:DIODE 7.82431e-05
16 *12:11 *57:8 0
17 *12:11 *59:12 0.000113776
18 *12:37 mgmt_gpio_out_buf[17] 0.000137853
19 *12:37 mgmt_gpio_out_buf[7] 0.000198698
20 *12:37 *88:DIODE 0.000215436
21 *12:37 *93:DIODE 0.000131227
22 *12:37 *123:DIODE 0
23 *12:37 *125:DIODE 2.79421e-05
24 *12:37 *135:A 0
25 *12:37 *31:14 0.000354934
26 *12:37 *43:23 7.89427e-05
27 *12:37 *48:11 0
28 *12:37 *56:35 0
29 *12:37 *64:8 0.000126288
*RES
1 mgmt_gpio_in[18] *12:11 13.5199 
2 *12:11 *160:A 9.72857 
3 *12:11 *12:37 44.6786 
4 *12:37 *119:DIODE 30.175 
*END

*D_NET *13 0.00984483
*CONN
*P mgmt_gpio_in[1] I
*I *100:DIODE I *D sky130_fd_sc_hd__diode_2
*I *141:A I *D sky130_fd_sc_hd__clkbuf_8
*CAP
1 mgmt_gpio_in[1] 0.00106137
2 *100:DIODE 0.000482661
3 *141:A 0.000680956
4 *13:19 0.00222499
5 *100:DIODE mgmt_gpio_out_buf[16] 0.000317148
6 *100:DIODE *90:DIODE 0.000226867
7 *100:DIODE *92:DIODE 4.48128e-05
8 *100:DIODE *14:13 0.000226867
9 *141:A mgmt_gpio_out_buf[3] 0.000237947
10 *141:A mgmt_gpio_out_buf[4] 0
11 *141:A *102:DIODE 0.00017309
12 *141:A *14:13 0
13 *141:A *15:17 0.0010174
14 *141:A *51:12 0.000104365
15 *141:A *52:8 4.21584e-05
16 *141:A *55:8 5.52238e-05
17 *13:19 mgmt_gpio_in_buf[8] 0.000312785
18 *13:19 mgmt_gpio_out_buf[1] 0.0009481
19 *13:19 mgmt_gpio_out_buf[2] 5.41771e-05
20 *13:19 mgmt_gpio_out_buf[4] 0
21 *13:19 *91:DIODE 0.000474576
22 *13:19 *14:13 0
23 *13:19 *15:17 9.6788e-05
24 *13:19 *53:14 0.000163455
25 *13:19 *71:18 9.98866e-05
26 *140:A *141:A 0.000799202
27 *3:10 *13:19 0
*RES
1 mgmt_gpio_in[1] *13:19 39.6964 
2 *13:19 *141:A 34.9607 
3 *13:19 *100:DIODE 23.3714 
*END

*D_NET *14 0.00839891
*CONN
*P mgmt_gpio_in[2] I
*I *101:DIODE I *D sky130_fd_sc_hd__diode_2
*I *142:A I *D sky130_fd_sc_hd__clkbuf_8
*CAP
1 mgmt_gpio_in[2] 0.000955376
2 *101:DIODE 0.000406365
3 *142:A 0.000874255
4 *14:13 0.002236
5 *101:DIODE mgmt_gpio_out_buf[16] 0.000129239
6 *101:DIODE *92:DIODE 0.000261162
7 *142:A mgmt_gpio_out_buf[16] 0.000128161
8 *142:A mgmt_gpio_out_buf[4] 0.000173797
9 *142:A *102:DIODE 9.28042e-05
10 *142:A *103:DIODE 0.000177941
11 *142:A *128:A 3.55407e-05
12 *142:A *137:A 0.000240484
13 *142:A *146:A 1.24368e-05
14 *142:A *16:5 0.000496799
15 *142:A *18:16 2.47753e-05
16 *142:A *31:14 0
17 *142:A *43:23 0.000254819
18 *142:A *50:8 6.82922e-05
19 *142:A *68:21 0.000257308
20 *142:A *79:10 0.000139637
21 *14:13 mgmt_gpio_out_buf[2] 0
22 *14:13 mgmt_gpio_out_buf[3] 0.00100895
23 *14:13 mgmt_gpio_out_buf[4] 0.000112327
24 *14:13 *90:DIODE 1.98839e-05
25 *14:13 *106:DIODE 0
26 *14:13 *52:8 6.57032e-05
27 *100:DIODE *14:13 0.000226867
28 *141:A *14:13 0
29 *13:19 *14:13 0
*RES
1 mgmt_gpio_in[2] *14:13 27.9643 
2 *14:13 *142:A 44.6214 
3 *14:13 *101:DIODE 18.8536 
*END

*D_NET *15 0.00662375
*CONN
*P mgmt_gpio_in[3] I
*I *143:A I *D sky130_fd_sc_hd__clkbuf_8
*I *102:DIODE I *D sky130_fd_sc_hd__diode_2
*CAP
1 mgmt_gpio_in[3] 0.00123103
2 *143:A 0
3 *102:DIODE 0.000424853
4 *15:17 0.00165588
5 *102:DIODE *51:12 0.00016985
6 *102:DIODE *79:10 0.000114587
7 *15:17 mgmt_gpio_in_buf[18] 0
8 *15:17 mgmt_gpio_in_buf[9] 0.000790342
9 *15:17 mgmt_gpio_out_buf[16] 9.60939e-05
10 *15:17 mgmt_gpio_out_buf[3] 0.000298185
11 *15:17 mgmt_gpio_out_buf[4] 0
12 *15:17 *51:12 0.000462854
13 *141:A *102:DIODE 0.00017309
14 *141:A *15:17 0.0010174
15 *142:A *102:DIODE 9.28042e-05
16 *13:19 *15:17 9.6788e-05
*RES
1 mgmt_gpio_in[3] *15:17 39.9286 
2 *15:17 *102:DIODE 20.6929 
3 *15:17 *143:A 13.8 
*END

*D_NET *16 0.00575131
*CONN
*P mgmt_gpio_in[4] I
*I *144:A I *D sky130_fd_sc_hd__clkbuf_8
*I *103:DIODE I *D sky130_fd_sc_hd__diode_2
*CAP
1 mgmt_gpio_in[4] 0.000632867
2 *144:A 0.000146142
3 *103:DIODE 0.000170924
4 *16:5 0.000949933
5 *103:DIODE *128:A 0.000153047
6 *103:DIODE *137:A 3.69047e-06
7 *103:DIODE *43:23 3.69047e-06
8 *103:DIODE *49:16 1.04066e-05
9 *103:DIODE *79:10 1.17968e-05
10 *16:5 mgmt_gpio_in_buf[13] 1.93905e-05
11 *16:5 mgmt_gpio_in_buf[16] 0.00011365
12 *16:5 mgmt_gpio_out_buf[16] 5.06044e-05
13 *16:5 mgmt_gpio_out_buf[4] 0.00174229
14 *16:5 mgmt_gpio_out_buf[5] 0
15 *16:5 *18:16 0.000699478
16 *16:5 *79:10 1.62539e-05
17 *99:DIODE *144:A 0.000352414
18 *142:A *103:DIODE 0.000177941
19 *142:A *16:5 0.000496799
*RES
1 mgmt_gpio_in[4] *16:5 22.9821 
2 *16:5 *103:DIODE 17.4071 
3 *16:5 *144:A 17.2107 
*END

*D_NET *17 0.00545234
*CONN
*P mgmt_gpio_in[5] I
*I *104:DIODE I *D sky130_fd_sc_hd__diode_2
*I *145:A I *D sky130_fd_sc_hd__clkbuf_8
*CAP
1 mgmt_gpio_in[5] 0.0012966
2 *104:DIODE 0
3 *145:A 0.000277936
4 *17:20 0.00157453
5 *145:A mgmt_gpio_out_buf[3] 0.000520043
6 *17:20 mgmt_gpio_in_buf[10] 0.000308235
7 *17:20 mgmt_gpio_in_buf[12] 1.94879e-05
8 *17:20 mgmt_gpio_in_buf[13] 0
9 *17:20 mgmt_gpio_in_buf[15] 8.45364e-05
10 *17:20 mgmt_gpio_in_buf[16] 0.000188964
11 *17:20 mgmt_gpio_out_buf[3] 6.72135e-05
12 *17:20 mgmt_gpio_out_buf[5] 0.000200455
13 *17:20 mgmt_gpio_out_buf[6] 0.000287427
14 *17:20 mgmt_gpio_out_buf[7] 0
15 *17:20 *18:16 2.06655e-06
16 *17:20 *19:10 8.08521e-05
17 *17:20 *48:11 0.000286927
18 *17:20 *80:13 0.000257073
*RES
1 mgmt_gpio_in[5] *17:20 40.25 
2 *17:20 *145:A 15.3893 
3 *17:20 *104:DIODE 9.3 
*END

*D_NET *18 0.00450796
*CONN
*P mgmt_gpio_in[6] I
*I *105:DIODE I *D sky130_fd_sc_hd__diode_2
*I *146:A I *D sky130_fd_sc_hd__clkbuf_8
*CAP
1 mgmt_gpio_in[6] 0.000832835
2 *105:DIODE 0
3 *146:A 0.000234904
4 *18:16 0.00106774
5 *18:16 mgmt_gpio_in_buf[11] 0.000380147
6 *18:16 mgmt_gpio_in_buf[13] 2.85097e-05
7 *18:16 mgmt_gpio_in_buf[14] 7.65907e-05
8 *18:16 mgmt_gpio_in_buf[15] 1.94945e-05
9 *18:16 mgmt_gpio_in_buf[16] 0.000117601
10 *18:16 mgmt_gpio_out_buf[16] 0.000120697
11 *18:16 mgmt_gpio_out_buf[6] 0.000490627
12 *18:16 mgmt_gpio_out_buf[7] 0
13 *18:16 *150:A 0.000137983
14 *18:16 *21:14 0.000262076
15 *18:16 *31:14 0
16 *142:A *146:A 1.24368e-05
17 *142:A *18:16 2.47753e-05
18 *16:5 *18:16 0.000699478
19 *17:20 *18:16 2.06655e-06
*RES
1 mgmt_gpio_in[6] *18:16 35.1429 
2 *18:16 *146:A 12.925 
3 *18:16 *105:DIODE 9.3 
*END

*D_NET *19 0.00409714
*CONN
*P mgmt_gpio_in[7] I
*I *106:DIODE I *D sky130_fd_sc_hd__diode_2
*I *147:A I *D sky130_fd_sc_hd__clkbuf_8
*CAP
1 mgmt_gpio_in[7] 0.000837584
2 *106:DIODE 0.000285612
3 *147:A 0
4 *19:10 0.0011232
5 *106:DIODE mgmt_gpio_out_buf[2] 6.23879e-05
6 *19:10 mgmt_gpio_in_buf[15] 0.000354068
7 *19:10 mgmt_gpio_in_buf[17] 0.000534459
8 *19:10 mgmt_gpio_out_buf[7] 0.000293461
9 *19:10 mgmt_gpio_out_buf[8] 8.17137e-05
10 *19:10 *109:DIODE 4.82865e-05
11 *19:10 *20:10 2.06655e-06
12 *110:DIODE *19:10 0.000125724
13 *119:DIODE *19:10 0.000267731
14 *14:13 *106:DIODE 0
15 *17:20 *19:10 8.08521e-05
*RES
1 mgmt_gpio_in[7] *19:10 24.9643 
2 *19:10 *147:A 9.3 
3 *19:10 *106:DIODE 22.9429 
*END

*D_NET *20 0.00299648
*CONN
*P mgmt_gpio_in[8] I
*I *108:DIODE I *D sky130_fd_sc_hd__diode_2
*I *149:A I *D sky130_fd_sc_hd__clkbuf_8
*CAP
1 mgmt_gpio_in[8] 0.00096092
2 *108:DIODE 0
3 *149:A 0.000231575
4 *20:10 0.00119249
5 *20:10 mgmt_gpio_in_buf[13] 0.00011616
6 *20:10 mgmt_gpio_in_buf[14] 0.000117588
7 *20:10 mgmt_gpio_out_buf[14] 2.31886e-05
8 *20:10 mgmt_gpio_out_buf[8] 0.000256672
9 *20:10 mgmt_gpio_out_buf[9] 0
10 *20:10 *21:14 0
11 *154:A *20:10 9.58126e-05
12 *19:10 *20:10 2.06655e-06
*RES
1 mgmt_gpio_in[8] *20:10 18.2679 
2 *20:10 *149:A 12.7286 
3 *20:10 *108:DIODE 9.3 
*END

*D_NET *21 0.0038558
*CONN
*P mgmt_gpio_in[9] I
*I *150:A I *D sky130_fd_sc_hd__clkbuf_8
*I *109:DIODE I *D sky130_fd_sc_hd__diode_2
*CAP
1 mgmt_gpio_in[9] 0.000758619
2 *150:A 8.5281e-05
3 *109:DIODE 0.000143763
4 *21:14 0.000987663
5 *109:DIODE mgmt_gpio_in_buf[13] 0.000119904
6 *109:DIODE mgmt_gpio_in_buf[16] 5.63951e-05
7 *150:A mgmt_gpio_in_buf[11] 3.97677e-05
8 *21:14 mgmt_gpio_in_buf[10] 5.33005e-05
9 *21:14 mgmt_gpio_in_buf[11] 0.000218905
10 *21:14 mgmt_gpio_out_buf[10] 0
11 *21:14 mgmt_gpio_out_buf[9] 0.00049578
12 *110:DIODE *21:14 9.41642e-05
13 *4:8 *21:14 0.000353908
14 *18:16 *150:A 0.000137983
15 *18:16 *21:14 0.000262076
16 *19:10 *109:DIODE 4.82865e-05
17 *20:10 *21:14 0
*RES
1 mgmt_gpio_in[9] *21:14 22.2679 
2 *21:14 *109:DIODE 20.8893 
3 *21:14 *150:A 11.0679 
*END

*D_NET *22 0.00114147
*CONN
*P mgmt_gpio_in_buf[0] O
*I *140:X O *D sky130_fd_sc_hd__clkbuf_8
*CAP
1 mgmt_gpio_in_buf[0] 0.000390879
2 *140:X 0.000390879
3 mgmt_gpio_in_buf[0] mgmt_gpio_in_buf[1] 0.000103708
4 mgmt_gpio_in_buf[0] *43:23 0.000177709
5 mgmt_gpio_in_buf[0] *52:8 0
6 mgmt_gpio_in_buf[0] *53:14 7.82911e-05
7 mgmt_gpio_in_buf[0] *54:14 0
*RES
1 *140:X mgmt_gpio_in_buf[0] 20.4641 
*END

*D_NET *23 0.00555139
*CONN
*P mgmt_gpio_in_buf[10] O
*I *151:X O *D sky130_fd_sc_hd__clkbuf_8
*CAP
1 mgmt_gpio_in_buf[10] 0.00151313
2 *151:X 0.00151313
3 mgmt_gpio_in_buf[10] mgmt_gpio_in_buf[11] 0.00119784
4 mgmt_gpio_in_buf[10] mgmt_gpio_in_buf[12] 6.80458e-05
5 mgmt_gpio_in_buf[10] mgmt_gpio_in_buf[15] 0.00011891
6 mgmt_gpio_in_buf[10] mgmt_gpio_in_buf[9] 0.00022078
7 mgmt_gpio_in_buf[10] mgmt_gpio_out_buf[6] 0.00055802
8 *17:20 mgmt_gpio_in_buf[10] 0.000308235
9 *21:14 mgmt_gpio_in_buf[10] 5.33005e-05
*RES
1 *151:X mgmt_gpio_in_buf[10] 28.1098 
*END

*D_NET *24 0.00658752
*CONN
*P mgmt_gpio_in_buf[11] O
*I *152:X O *D sky130_fd_sc_hd__clkbuf_8
*CAP
1 mgmt_gpio_in_buf[11] 0.00200179
2 *152:X 0.00200179
3 mgmt_gpio_in_buf[11] mgmt_gpio_in_buf[12] 0.000339752
4 mgmt_gpio_in_buf[11] mgmt_gpio_in_buf[13] 0.000156316
5 mgmt_gpio_in_buf[11] mgmt_gpio_in_buf[16] 0
6 mgmt_gpio_in_buf[11] *31:14 0
7 mgmt_gpio_in_buf[11] *80:13 0
8 mgmt_gpio_in_buf[10] mgmt_gpio_in_buf[11] 0.00119784
9 *110:DIODE mgmt_gpio_in_buf[11] 3.97677e-05
10 *150:A mgmt_gpio_in_buf[11] 3.97677e-05
11 *4:8 mgmt_gpio_in_buf[11] 0.000211434
12 *18:16 mgmt_gpio_in_buf[11] 0.000380147
13 *21:14 mgmt_gpio_in_buf[11] 0.000218905
*RES
1 *152:X mgmt_gpio_in_buf[11] 38.1554 
*END

*D_NET *25 0.00490573
*CONN
*P mgmt_gpio_in_buf[12] O
*I *153:X O *D sky130_fd_sc_hd__clkbuf_8
*CAP
1 mgmt_gpio_in_buf[12] 0.00181056
2 *153:X 0.00181056
3 mgmt_gpio_in_buf[12] mgmt_gpio_in_buf[13] 0.000300434
4 mgmt_gpio_in_buf[12] mgmt_gpio_in_buf[14] 0
5 mgmt_gpio_in_buf[12] mgmt_gpio_out_buf[15] 0.000298041
6 mgmt_gpio_in_buf[12] mgmt_gpio_out_buf[7] 0
7 mgmt_gpio_in_buf[10] mgmt_gpio_in_buf[12] 6.80458e-05
8 mgmt_gpio_in_buf[11] mgmt_gpio_in_buf[12] 0.000339752
9 *157:A mgmt_gpio_in_buf[12] 0.000208478
10 *10:11 mgmt_gpio_in_buf[12] 5.03772e-05
11 *17:20 mgmt_gpio_in_buf[12] 1.94879e-05
*RES
1 *153:X mgmt_gpio_in_buf[12] 28.8403 
*END

*D_NET *26 0.00417297
*CONN
*P mgmt_gpio_in_buf[13] O
*I *154:X O *D sky130_fd_sc_hd__clkbuf_8
*CAP
1 mgmt_gpio_in_buf[13] 0.00148722
2 *154:X 0.00148722
3 mgmt_gpio_in_buf[13] mgmt_gpio_in_buf[14] 0.000234177
4 mgmt_gpio_in_buf[13] mgmt_gpio_in_buf[16] 0.000135193
5 mgmt_gpio_in_buf[13] mgmt_gpio_out_buf[5] 1.97174e-05
6 mgmt_gpio_in_buf[13] *80:13 6.87242e-05
7 mgmt_gpio_in_buf[11] mgmt_gpio_in_buf[13] 0.000156316
8 mgmt_gpio_in_buf[12] mgmt_gpio_in_buf[13] 0.000300434
9 *109:DIODE mgmt_gpio_in_buf[13] 0.000119904
10 *16:5 mgmt_gpio_in_buf[13] 1.93905e-05
11 *17:20 mgmt_gpio_in_buf[13] 0
12 *18:16 mgmt_gpio_in_buf[13] 2.85097e-05
13 *20:10 mgmt_gpio_in_buf[13] 0.00011616
*RES
1 *154:X mgmt_gpio_in_buf[13] 29.5702 
*END

*D_NET *27 0.00590932
*CONN
*P mgmt_gpio_in_buf[14] O
*I *155:X O *D sky130_fd_sc_hd__clkbuf_8
*CAP
1 mgmt_gpio_in_buf[14] 0.00174885
2 *155:X 0.00174885
3 mgmt_gpio_in_buf[14] mgmt_gpio_in_buf[15] 0.00170968
4 mgmt_gpio_in_buf[14] mgmt_gpio_out_buf[7] 0
5 mgmt_gpio_in_buf[12] mgmt_gpio_in_buf[14] 0
6 mgmt_gpio_in_buf[13] mgmt_gpio_in_buf[14] 0.000234177
7 *154:A mgmt_gpio_in_buf[14] 0.000164152
8 *7:10 mgmt_gpio_in_buf[14] 0.000109423
9 *18:16 mgmt_gpio_in_buf[14] 7.65907e-05
10 *20:10 mgmt_gpio_in_buf[14] 0.000117588
*RES
1 *155:X mgmt_gpio_in_buf[14] 32.4193 
*END

*D_NET *28 0.00540141
*CONN
*P mgmt_gpio_in_buf[15] O
*I *156:X O *D sky130_fd_sc_hd__clkbuf_8
*CAP
1 mgmt_gpio_in_buf[15] 0.0013706
2 *156:X 0.0013706
3 mgmt_gpio_in_buf[15] mgmt_gpio_in_buf[16] 0.000360117
4 mgmt_gpio_in_buf[15] mgmt_gpio_in_buf[17] 0
5 mgmt_gpio_in_buf[15] mgmt_gpio_out_buf[6] 1.3409e-05
6 mgmt_gpio_in_buf[15] mgmt_gpio_out_buf[7] 0
7 mgmt_gpio_in_buf[10] mgmt_gpio_in_buf[15] 0.00011891
8 mgmt_gpio_in_buf[14] mgmt_gpio_in_buf[15] 0.00170968
9 *17:20 mgmt_gpio_in_buf[15] 8.45364e-05
10 *18:16 mgmt_gpio_in_buf[15] 1.94945e-05
11 *19:10 mgmt_gpio_in_buf[15] 0.000354068
*RES
1 *156:X mgmt_gpio_in_buf[15] 27.9462 
*END

*D_NET *29 0.00415762
*CONN
*P mgmt_gpio_in_buf[16] O
*I *157:X O *D sky130_fd_sc_hd__clkbuf_8
*CAP
1 mgmt_gpio_in_buf[16] 0.00131613
2 *157:X 0.00131613
3 mgmt_gpio_in_buf[16] mgmt_gpio_in_buf[17] 0.000230762
4 mgmt_gpio_in_buf[16] mgmt_gpio_in_buf[18] 3.69047e-06
5 mgmt_gpio_in_buf[16] mgmt_gpio_out_buf[15] 9.41642e-05
6 mgmt_gpio_in_buf[16] *80:13 0.000224824
7 mgmt_gpio_in_buf[11] mgmt_gpio_in_buf[16] 0
8 mgmt_gpio_in_buf[13] mgmt_gpio_in_buf[16] 0.000135193
9 mgmt_gpio_in_buf[15] mgmt_gpio_in_buf[16] 0.000360117
10 *109:DIODE mgmt_gpio_in_buf[16] 5.63951e-05
11 *16:5 mgmt_gpio_in_buf[16] 0.00011365
12 *17:20 mgmt_gpio_in_buf[16] 0.000188964
13 *18:16 mgmt_gpio_in_buf[16] 0.000117601
*RES
1 *157:X mgmt_gpio_in_buf[16] 39.2255 
*END

*D_NET *30 0.0065091
*CONN
*P mgmt_gpio_in_buf[17] O
*I *158:X O *D sky130_fd_sc_hd__clkbuf_8
*CAP
1 mgmt_gpio_in_buf[17] 0.00196843
2 *158:X 0.00196843
3 mgmt_gpio_in_buf[17] mgmt_gpio_in_buf[18] 0.000673248
4 mgmt_gpio_in_buf[17] mgmt_gpio_out_buf[16] 7.49267e-05
5 mgmt_gpio_in_buf[17] mgmt_gpio_out_buf[7] 5.90443e-06
6 mgmt_gpio_in_buf[17] mgmt_gpio_out_buf[8] 0.00087482
7 mgmt_gpio_in_buf[15] mgmt_gpio_in_buf[17] 0
8 mgmt_gpio_in_buf[16] mgmt_gpio_in_buf[17] 0.000230762
9 *119:DIODE mgmt_gpio_in_buf[17] 0.000178121
10 *19:10 mgmt_gpio_in_buf[17] 0.000534459
*RES
1 *158:X mgmt_gpio_in_buf[17] 33.7953 
*END

*D_NET *31 0.0100064
*CONN
*P mgmt_gpio_in_buf[18] O
*I *160:X O *D sky130_fd_sc_hd__clkbuf_8
*CAP
1 mgmt_gpio_in_buf[18] 0.00145571
2 *160:X 0.00105659
3 *31:14 0.00251231
4 mgmt_gpio_in_buf[18] mgmt_gpio_out_buf[15] 8.8738e-05
5 mgmt_gpio_in_buf[18] mgmt_gpio_out_buf[4] 0.0008902
6 *31:14 mgmt_gpio_out_buf[16] 0
7 *31:14 mgmt_gpio_out_buf[7] 0.000100261
8 *31:14 *93:DIODE 0.000296227
9 *31:14 *164:A 0.000228937
10 *31:14 *43:23 0
11 *31:14 *48:11 0.000548395
12 *31:14 *49:16 0.000499762
13 *31:14 *68:21 0
14 *31:14 *70:11 0.000222878
15 *31:14 *80:13 0.00107453
16 mgmt_gpio_in_buf[11] *31:14 0
17 mgmt_gpio_in_buf[16] mgmt_gpio_in_buf[18] 3.69047e-06
18 mgmt_gpio_in_buf[17] mgmt_gpio_in_buf[18] 0.000673248
19 *142:A *31:14 0
20 *12:37 *31:14 0.000354934
21 *15:17 mgmt_gpio_in_buf[18] 0
22 *18:16 *31:14 0
*RES
1 *160:X *31:14 48.7821 
2 *31:14 mgmt_gpio_in_buf[18] 25.1736 
*END

*D_NET *32 0.00123151
*CONN
*P mgmt_gpio_in_buf[1] O
*I *141:X O *D sky130_fd_sc_hd__clkbuf_8
*CAP
1 mgmt_gpio_in_buf[1] 0.000430318
2 *141:X 0.000430318
3 mgmt_gpio_in_buf[1] mgmt_gpio_in_buf[2] 0.000267165
4 mgmt_gpio_in_buf[1] *52:8 0
5 mgmt_gpio_in_buf[1] *54:14 0
6 mgmt_gpio_in_buf[0] mgmt_gpio_in_buf[1] 0.000103708
*RES
1 *141:X mgmt_gpio_in_buf[1] 20.0574 
*END

*D_NET *33 0.00109914
*CONN
*P mgmt_gpio_in_buf[2] O
*I *142:X O *D sky130_fd_sc_hd__clkbuf_8
*CAP
1 mgmt_gpio_in_buf[2] 0.000327135
2 *142:X 0.000327135
3 mgmt_gpio_in_buf[2] mgmt_gpio_in_buf[3] 0.000177709
4 mgmt_gpio_in_buf[2] *52:8 0
5 mgmt_gpio_in_buf[2] *54:14 0
6 mgmt_gpio_in_buf[1] mgmt_gpio_in_buf[2] 0.000267165
*RES
1 *142:X mgmt_gpio_in_buf[2] 18.9462 
*END

*D_NET *34 0.000947341
*CONN
*P mgmt_gpio_in_buf[3] O
*I *143:X O *D sky130_fd_sc_hd__clkbuf_8
*CAP
1 mgmt_gpio_in_buf[3] 0.000314958
2 *143:X 0.000314958
3 mgmt_gpio_in_buf[3] mgmt_gpio_in_buf[4] 0.000129525
4 mgmt_gpio_in_buf[3] *52:8 0
5 mgmt_gpio_in_buf[3] *54:14 1.01912e-05
6 mgmt_gpio_in_buf[2] mgmt_gpio_in_buf[3] 0.000177709
*RES
1 *143:X mgmt_gpio_in_buf[3] 18.3391 
*END

*D_NET *35 0.00119962
*CONN