*SPEF "ieee 1481-1999"
*DESIGN "mprj_io_buffer"
*DATE "11:11:11 Fri 11 11, 1111"
*VENDOR "OpenRCX"
*PROGRAM "Parallel Extraction"
*VERSION "1.0"
*DESIGN_FLOW "NAME_SCOPE LOCAL" "PIN_CAP NONE"
*DIVIDER /
*DELIMITER :
*BUS_DELIMITER []
*T_UNIT 1 NS
*C_UNIT 1 PF
*R_UNIT 1 OHM
*L_UNIT 1 HENRY

*NAME_MAP
*3 mgmt_gpio_in[0]
*4 mgmt_gpio_in[10]
*5 mgmt_gpio_in[11]
*6 mgmt_gpio_in[12]
*7 mgmt_gpio_in[13]
*8 mgmt_gpio_in[14]
*9 mgmt_gpio_in[15]
*10 mgmt_gpio_in[16]
*11 mgmt_gpio_in[17]
*12 mgmt_gpio_in[18]
*13 mgmt_gpio_in[1]
*14 mgmt_gpio_in[2]
*15 mgmt_gpio_in[3]
*16 mgmt_gpio_in[4]
*17 mgmt_gpio_in[5]
*18 mgmt_gpio_in[6]
*19 mgmt_gpio_in[7]
*20 mgmt_gpio_in[8]
*21 mgmt_gpio_in[9]
*22 mgmt_gpio_in_buf[0]
*23 mgmt_gpio_in_buf[10]
*24 mgmt_gpio_in_buf[11]
*25 mgmt_gpio_in_buf[12]
*26 mgmt_gpio_in_buf[13]
*27 mgmt_gpio_in_buf[14]
*28 mgmt_gpio_in_buf[15]
*29 mgmt_gpio_in_buf[16]
*30 mgmt_gpio_in_buf[17]
*31 mgmt_gpio_in_buf[18]
*32 mgmt_gpio_in_buf[1]
*33 mgmt_gpio_in_buf[2]
*34 mgmt_gpio_in_buf[3]
*35 mgmt_gpio_in_buf[4]
*36 mgmt_gpio_in_buf[5]
*37 mgmt_gpio_in_buf[6]
*38 mgmt_gpio_in_buf[7]
*39 mgmt_gpio_in_buf[8]
*40 mgmt_gpio_in_buf[9]
*41 mgmt_gpio_oeb[0]
*42 mgmt_gpio_oeb[1]
*43 mgmt_gpio_oeb[2]
*44 mgmt_gpio_oeb_buf[0]
*45 mgmt_gpio_oeb_buf[1]
*46 mgmt_gpio_oeb_buf[2]
*47 mgmt_gpio_out[0]
*48 mgmt_gpio_out[10]
*49 mgmt_gpio_out[11]
*50 mgmt_gpio_out[12]
*51 mgmt_gpio_out[13]
*52 mgmt_gpio_out[14]
*53 mgmt_gpio_out[15]
*54 mgmt_gpio_out[16]
*55 mgmt_gpio_out[17]
*56 mgmt_gpio_out[18]
*57 mgmt_gpio_out[1]
*58 mgmt_gpio_out[2]
*59 mgmt_gpio_out[3]
*60 mgmt_gpio_out[4]
*61 mgmt_gpio_out[5]
*62 mgmt_gpio_out[6]
*63 mgmt_gpio_out[7]
*64 mgmt_gpio_out[8]
*65 mgmt_gpio_out[9]
*66 mgmt_gpio_out_buf[0]
*67 mgmt_gpio_out_buf[10]
*68 mgmt_gpio_out_buf[11]
*69 mgmt_gpio_out_buf[12]
*70 mgmt_gpio_out_buf[13]
*71 mgmt_gpio_out_buf[14]
*72 mgmt_gpio_out_buf[15]
*73 mgmt_gpio_out_buf[16]
*74 mgmt_gpio_out_buf[17]
*75 mgmt_gpio_out_buf[18]
*76 mgmt_gpio_out_buf[1]
*77 mgmt_gpio_out_buf[2]
*78 mgmt_gpio_out_buf[3]
*79 mgmt_gpio_out_buf[4]
*80 mgmt_gpio_out_buf[5]
*81 mgmt_gpio_out_buf[6]
*82 mgmt_gpio_out_buf[7]
*83 mgmt_gpio_out_buf[8]
*84 mgmt_gpio_out_buf[9]
*85 ANTENNA_BUF\[0\]_A
*86 ANTENNA_BUF\[10\]_A
*87 ANTENNA_BUF\[11\]_A
*88 ANTENNA_BUF\[12\]_A
*89 ANTENNA_BUF\[13\]_A
*90 ANTENNA_BUF\[14\]_A
*91 ANTENNA_BUF\[15\]_A
*92 ANTENNA_BUF\[16\]_A
*93 ANTENNA_BUF\[17\]_A
*94 ANTENNA_BUF\[18\]_A
*95 ANTENNA_BUF\[19\]_A
*96 ANTENNA_BUF\[1\]_A
*97 ANTENNA_BUF\[20\]_A
*98 ANTENNA_BUF\[21\]_A
*99 ANTENNA_BUF\[22\]_A
*100 ANTENNA_BUF\[23\]_A
*101 ANTENNA_BUF\[24\]_A
*102 ANTENNA_BUF\[25\]_A
*103 ANTENNA_BUF\[26\]_A
*104 ANTENNA_BUF\[27\]_A
*105 ANTENNA_BUF\[28\]_A
*106 ANTENNA_BUF\[29\]_A
*107 ANTENNA_BUF\[2\]_A
*108 ANTENNA_BUF\[30\]_A
*109 ANTENNA_BUF\[31\]_A
*110 ANTENNA_BUF\[32\]_A
*111 ANTENNA_BUF\[33\]_A
*112 ANTENNA_BUF\[34\]_A
*113 ANTENNA_BUF\[35\]_A
*114 ANTENNA_BUF\[36\]_A
*115 ANTENNA_BUF\[37\]_A
*116 ANTENNA_BUF\[38\]_A
*117 ANTENNA_BUF\[39\]_A
*118 ANTENNA_BUF\[3\]_A
*119 ANTENNA_BUF\[40\]_A
*120 ANTENNA_BUF\[4\]_A
*121 ANTENNA_BUF\[5\]_A
*122 ANTENNA_BUF\[6\]_A
*123 ANTENNA_BUF\[7\]_A
*124 ANTENNA_BUF\[8\]_A
*125 ANTENNA_BUF\[9\]_A
*126 BUF\[0\]
*127 BUF\[10\]
*128 BUF\[11\]
*129 BUF\[12\]
*130 BUF\[13\]
*131 BUF\[14\]
*132 BUF\[15\]
*133 BUF\[16\]
*134 BUF\[17\]
*135 BUF\[18\]
*136 BUF\[19\]
*137 BUF\[1\]
*138 BUF\[20\]
*139 BUF\[21\]
*140 BUF\[22\]
*141 BUF\[23\]
*142 BUF\[24\]
*143 BUF\[25\]
*144 BUF\[26\]
*145 BUF\[27\]
*146 BUF\[28\]
*147 BUF\[29\]
*148 BUF\[2\]
*149 BUF\[30\]
*150 BUF\[31\]
*151 BUF\[32\]
*152 BUF\[33\]
*153 BUF\[34\]
*154 BUF\[35\]
*155 BUF\[36\]
*156 BUF\[37\]
*157 BUF\[38\]
*158 BUF\[39\]
*159 BUF\[3\]
*160 BUF\[40\]
*161 BUF\[4\]
*162 BUF\[5\]
*163 BUF\[6\]
*164 BUF\[7\]
*165 BUF\[8\]
*166 BUF\[9\]
*167 FILLER_0_11
*168 FILLER_0_26
*169 FILLER_0_29
*170 FILLER_0_3
*171 FILLER_0_43
*172 FILLER_0_49
*173 FILLER_0_55
*174 FILLER_0_57
*175 FILLER_0_70
*176 FILLER_10_20
*177 FILLER_10_26
*178 FILLER_10_29
*179 FILLER_10_3
*180 FILLER_10_44
*181 FILLER_10_52
*182 FILLER_10_55
*183 FILLER_10_70
*184 FILLER_11_14
*185 FILLER_11_29
*186 FILLER_11_3
*187 FILLER_11_35
*188 FILLER_11_41
*189 FILLER_11_51
*190 FILLER_11_55
*191 FILLER_11_57
*192 FILLER_11_70
*193 FILLER_11_8
*194 FILLER_12_24
*195 FILLER_12_29
*196 FILLER_12_3
*197 FILLER_12_42
*198 FILLER_12_50
*199 FILLER_12_62
*200 FILLER_12_68
*201 FILLER_12_9
*202 FILLER_13_19
*203 FILLER_13_23
*204 FILLER_13_26
*205 FILLER_13_29
*206 FILLER_13_3
*207 FILLER_13_42
*208 FILLER_13_50
*209 FILLER_13_54
*210 FILLER_13_57
*211 FILLER_13_7
*212 FILLER_13_70
*213 FILLER_1_24
*214 FILLER_1_3
*215 FILLER_1_39
*216 FILLER_1_54
*217 FILLER_1_57
*218 FILLER_1_70
*219 FILLER_1_9
*220 FILLER_2_11
*221 FILLER_2_26
*222 FILLER_2_29
*223 FILLER_2_3
*224 FILLER_2_42
*225 FILLER_2_46
*226 FILLER_2_49
*227 FILLER_2_55
*228 FILLER_2_70
*229 FILLER_3_16
*230 FILLER_3_3
*231 FILLER_3_35
*232 FILLER_3_50
*233 FILLER_3_57
*234 FILLER_3_70
*235 FILLER_4_11
*236 FILLER_4_26
*237 FILLER_4_29
*238 FILLER_4_3
*239 FILLER_4_42
*240 FILLER_4_46
*241 FILLER_4_49
*242 FILLER_4_55
*243 FILLER_4_70
*244 FILLER_5_11
*245 FILLER_5_17
*246 FILLER_5_23
*247 FILLER_5_3
*248 FILLER_5_38
*249 FILLER_5_53
*250 FILLER_5_57
*251 FILLER_5_70
*252 FILLER_6_11
*253 FILLER_6_26
*254 FILLER_6_29
*255 FILLER_6_3
*256 FILLER_6_42
*257 FILLER_6_46
*258 FILLER_6_49
*259 FILLER_6_55
*260 FILLER_6_70
*261 FILLER_7_12
*262 FILLER_7_18
*263 FILLER_7_24
*264 FILLER_7_3
*265 FILLER_7_39
*266 FILLER_7_54
*267 FILLER_7_57
*268 FILLER_7_70
*269 FILLER_7_9
*270 FILLER_8_11
*271 FILLER_8_14
*272 FILLER_8_20
*273 FILLER_8_26
*274 FILLER_8_29
*275 FILLER_8_3
*276 FILLER_8_42
*277 FILLER_8_48
*278 FILLER_8_52
*279 FILLER_8_55
*280 FILLER_8_7
*281 FILLER_8_70
*282 FILLER_9_15
*283 FILLER_9_3
*284 FILLER_9_30
*285 FILLER_9_36
*286 FILLER_9_42
*287 FILLER_9_48
*288 FILLER_9_54
*289 FILLER_9_57
*290 FILLER_9_70
*291 FILLER_9_9
*292 PHY_0
*293 PHY_1
*294 PHY_10
*295 PHY_11
*296 PHY_12
*297 PHY_13
*298 PHY_14
*299 PHY_15
*300 PHY_16
*301 PHY_17
*302 PHY_18
*303 PHY_19
*304 PHY_2
*305 PHY_20
*306 PHY_21
*307 PHY_22
*308 PHY_23
*309 PHY_24
*310 PHY_25
*311 PHY_26
*312 PHY_27
*313 PHY_3
*314 PHY_4
*315 PHY_5
*316 PHY_6
*317 PHY_7
*318 PHY_8
*319 PHY_9
*320 TAP_28
*321 TAP_29
*322 TAP_30
*323 TAP_31
*324 TAP_32
*325 TAP_33
*326 TAP_34
*327 TAP_35
*328 TAP_36
*329 TAP_37
*330 TAP_38
*331 TAP_39
*332 TAP_40
*333 TAP_41
*334 TAP_42
*335 TAP_43

*PORTS
mgmt_gpio_in[0] I
mgmt_gpio_in[10] I
mgmt_gpio_in[11] I
mgmt_gpio_in[12] I
mgmt_gpio_in[13] I
mgmt_gpio_in[14] I
mgmt_gpio_in[15] I
mgmt_gpio_in[16] I
mgmt_gpio_in[17] I
mgmt_gpio_in[18] I
mgmt_gpio_in[1] I
mgmt_gpio_in[2] I
mgmt_gpio_in[3] I
mgmt_gpio_in[4] I
mgmt_gpio_in[5] I
mgmt_gpio_in[6] I
mgmt_gpio_in[7] I
mgmt_gpio_in[8] I
mgmt_gpio_in[9] I
mgmt_gpio_in_buf[0] O
mgmt_gpio_in_buf[10] O
mgmt_gpio_in_buf[11] O
mgmt_gpio_in_buf[12] O
mgmt_gpio_in_buf[13] O
mgmt_gpio_in_buf[14] O
mgmt_gpio_in_buf[15] O
mgmt_gpio_in_buf[16] O
mgmt_gpio_in_buf[17] O
mgmt_gpio_in_buf[18] O
mgmt_gpio_in_buf[1] O
mgmt_gpio_in_buf[2] O
mgmt_gpio_in_buf[3] O
mgmt_gpio_in_buf[4] O
mgmt_gpio_in_buf[5] O
mgmt_gpio_in_buf[6] O
mgmt_gpio_in_buf[7] O
mgmt_gpio_in_buf[8] O
mgmt_gpio_in_buf[9] O
mgmt_gpio_oeb[0] I
mgmt_gpio_oeb[1] I
mgmt_gpio_oeb[2] I
mgmt_gpio_oeb_buf[0] O
mgmt_gpio_oeb_buf[1] O
mgmt_gpio_oeb_buf[2] O
mgmt_gpio_out[0] I
mgmt_gpio_out[10] I
mgmt_gpio_out[11] I
mgmt_gpio_out[12] I
mgmt_gpio_out[13] I
mgmt_gpio_out[14] I
mgmt_gpio_out[15] I
mgmt_gpio_out[16] I
mgmt_gpio_out[17] I
mgmt_gpio_out[18] I
mgmt_gpio_out[1] I
mgmt_gpio_out[2] I
mgmt_gpio_out[3] I
mgmt_gpio_out[4] I
mgmt_gpio_out[5] I
mgmt_gpio_out[6] I
mgmt_gpio_out[7] I
mgmt_gpio_out[8] I
mgmt_gpio_out[9] I
mgmt_gpio_out_buf[0] O
mgmt_gpio_out_buf[10] O
mgmt_gpio_out_buf[11] O
mgmt_gpio_out_buf[12] O
mgmt_gpio_out_buf[13] O
mgmt_gpio_out_buf[14] O
mgmt_gpio_out_buf[15] O
mgmt_gpio_out_buf[16] O
mgmt_gpio_out_buf[17] O
mgmt_gpio_out_buf[18] O
mgmt_gpio_out_buf[1] O
mgmt_gpio_out_buf[2] O
mgmt_gpio_out_buf[3] O
mgmt_gpio_out_buf[4] O
mgmt_gpio_out_buf[5] O
mgmt_gpio_out_buf[6] O
mgmt_gpio_out_buf[7] O
mgmt_gpio_out_buf[8] O
mgmt_gpio_out_buf[9] O

*D_NET *3 0.0106154
*CONN
*P mgmt_gpio_in[0] I
*I *140:A I *D sky130_fd_sc_hd__clkbuf_8
*I *99:DIODE I *D sky130_fd_sc_hd__diode_2
*CAP
1 mgmt_gpio_in[0] 0.00146516
2 *140:A 0.000295425
3 *99:DIODE 0.00141306
4 *3:10 0.00317364
5 *99:DIODE mgmt_gpio_out_buf[11] 9.10058e-05
6 *99:DIODE mgmt_gpio_out_buf[5] 0.00026898
7 *99:DIODE mgmt_gpio_out_buf[6] 7.22155e-05
8 *99:DIODE *124:DIODE 8.52845e-05
9 *99:DIODE *144:A 0.000306448
10 *99:DIODE *163:A 0.000128335
11 *99:DIODE *48:11 0.000270647
12 *140:A *141:A 0.0007395
13 *140:A *41:11 8.65905e-05
14 *140:A *51:12 8.56653e-05
15 *140:A *52:8 0.000982485
16 *3:10 mgmt_gpio_out_buf[0] 0.000340773
17 *3:10 mgmt_gpio_out_buf[1] 0
18 *3:10 *13:19 0
19 *3:10 *53:14 0.000810188
*RES
1 mgmt_gpio_in[0] *3:10 27.47 
2 *3:10 *99:DIODE 26.225 
3 *3:10 *140:A 17.72 
*END

*D_NET *4 0.00240874
*CONN
*P mgmt_gpio_in[10] I
*I *110:DIODE I *D sky130_fd_sc_hd__diode_2
*I *151:A I *D sky130_fd_sc_hd__clkbuf_8
*CAP
1 mgmt_gpio_in[10] 0.000418994
2 *110:DIODE 6.17315e-05
3 *151:A 0
4 *4:8 0.000480725
5 *110:DIODE mgmt_gpio_in_buf[11] 3.83194e-05
6 *110:DIODE mgmt_gpio_out_buf[7] 0.000116158
7 *110:DIODE *19:10 0.000116158
8 *110:DIODE *21:14 8.23457e-05
9 *4:8 mgmt_gpio_in_buf[11] 0.000198881
10 *4:8 mgmt_gpio_out_buf[10] 0.000406915
11 *4:8 mgmt_gpio_out_buf[11] 0.000181184
12 *4:8 *21:14 0.000307327
*RES
1 mgmt_gpio_in[10] *4:8 13.16 
2 *4:8 *151:A 1.6 
3 *4:8 *110:DIODE 7.775 
*END

*D_NET *5 0.00135842
*CONN
*P mgmt_gpio_in[11] I
*I *111:DIODE I *D sky130_fd_sc_hd__diode_2
*I *152:A I *D sky130_fd_sc_hd__clkbuf_8
*CAP
1 mgmt_gpio_in[11] 0.000236069
2 *111:DIODE 0.000103861
3 *152:A 9.23223e-05
4 *5:7 0.000432253
5 *152:A mgmt_gpio_out_buf[11] 7.25517e-05
6 *152:A *114:DIODE 0
7 *5:7 mgmt_gpio_out_buf[11] 0.000406408
8 *5:7 mgmt_gpio_out_buf[12] 0
9 *5:7 *114:DIODE 0
10 *5:7 *155:A 1.4952e-05
*RES
1 mgmt_gpio_in[11] *5:7 5.565 
2 *5:7 *152:A 5.265 
3 *5:7 *111:DIODE 4.74 
*END

*D_NET *6 0.00250533
*CONN
*P mgmt_gpio_in[12] I
*I *153:A I *D sky130_fd_sc_hd__clkbuf_8
*I *112:DIODE I *D sky130_fd_sc_hd__diode_2
*CAP
1 mgmt_gpio_in[12] 0.000250865
2 *153:A 0.000154906
3 *112:DIODE 0.000181922
4 *6:5 0.000587693
5 *112:DIODE mgmt_gpio_out_buf[12] 0.000116853
6 *112:DIODE mgmt_gpio_out_buf[13] 4.91189e-05
7 *6:5 mgmt_gpio_out_buf[12] 0.000833028
8 *6:5 mgmt_gpio_out_buf[13] 0.000330945
*RES
1 mgmt_gpio_in[12] *6:5 9.615 
2 *6:5 *112:DIODE 6.465 
3 *6:5 *153:A 5.775 
*END

*D_NET *7 0.00275461
*CONN
*P mgmt_gpio_in[13] I
*I *113:DIODE I *D sky130_fd_sc_hd__diode_2
*I *154:A I *D sky130_fd_sc_hd__clkbuf_8
*CAP
1 mgmt_gpio_in[13] 0.000948128
2 *113:DIODE 0
3 *154:A 0.000137448
4 *7:10 0.00108558
5 *154:A mgmt_gpio_in_buf[14] 0.000154168
6 *154:A *20:10 8.35068e-05
7 *7:10 mgmt_gpio_in_buf[14] 0.000104174
8 *7:10 mgmt_gpio_out_buf[12] 0
9 *7:10 mgmt_gpio_out_buf[13] 0.000241606
*RES
1 mgmt_gpio_in[13] *7:10 14.255 
2 *7:10 *154:A 4.48 
3 *7:10 *113:DIODE 1.6 
*END

*D_NET *8 0.00125486
*CONN
*P mgmt_gpio_in[14] I
*I *155:A I *D sky130_fd_sc_hd__clkbuf_8
*I *114:DIODE I *D sky130_fd_sc_hd__diode_2
*CAP
1 mgmt_gpio_in[14] 0.000190494
2 *155:A 0.000100203
3 *114:DIODE 0.000151085
4 *8:5 0.000441782
5 *114:DIODE mgmt_gpio_out_buf[11] 0
6 *114:DIODE mgmt_gpio_out_buf[12] 0.000155589
7 *155:A mgmt_gpio_out_buf[12] 0
8 *155:A mgmt_gpio_out_buf[14] 1.6356e-05
9 *155:A mgmt_gpio_out_buf[15] 4.14504e-06
10 *8:5 mgmt_gpio_out_buf[14] 9.32755e-05
11 *8:5 mgmt_gpio_out_buf[15] 8.69761e-05
12 *152:A *114:DIODE 0
13 *5:7 *114:DIODE 0
14 *5:7 *155:A 1.4952e-05
*RES
1 mgmt_gpio_in[14] *8:5 0.6308 
2 *8:5 *114:DIODE 7.3925 
3 *8:5 *155:A 4.74203 
*END

*D_NET *9 0.00140194
*CONN
*P mgmt_gpio_in[15] I
*I *156:A I *D sky130_fd_sc_hd__clkbuf_8
*I *115:DIODE I *D sky130_fd_sc_hd__diode_2
*CAP
1 mgmt_gpio_in[15] 0.000384957
2 *156:A 0.000187815
3 *115:DIODE 0
4 *9:11 0.000572772
5 *9:11 mgmt_gpio_out_buf[11] 0
6 *9:11 mgmt_gpio_out_buf[12] 8.37447e-05
7 *9:11 mgmt_gpio_out_buf[15] 8.36004e-05
8 *9:11 mgmt_gpio_out_buf[16] 8.9053e-05
*RES
1 mgmt_gpio_in[15] *9:11 6.59003 
2 *9:11 *115:DIODE 1.6 
3 *9:11 *156:A 4.39 
*END

*D_NET *10 0.00334241
*CONN
*P mgmt_gpio_in[16] I
*I *157:A I *D sky130_fd_sc_hd__clkbuf_8
*I *116:DIODE I *D sky130_fd_sc_hd__diode_2
*CAP
1 mgmt_gpio_in[16] 0.000968998
2 *157:A 0.000264727
3 *116:DIODE 0
4 *10:11 0.00123372
5 *157:A mgmt_gpio_in_buf[12] 0.000196366
6 *10:11 mgmt_gpio_in_buf[12] 4.80285e-05
7 *10:11 mgmt_gpio_out_buf[10] 0
8 *10:11 mgmt_gpio_out_buf[16] 0.000226671
9 *10:11 mgmt_gpio_out_buf[17] 8.57298e-05
10 *10:11 mgmt_gpio_out_buf[9] 0.00017425
11 *10:11 *11:11 0.00014392
*RES
1 mgmt_gpio_in[16] *10:11 8.66057 
2 *10:11 *116:DIODE 1.6 
3 *10:11 *157:A 5.17 
*END

*D_NET *11 0.00379067
*CONN
*P mgmt_gpio_in[17] I
*I *158:A I *D sky130_fd_sc_hd__clkbuf_8
*I *117:DIODE I *D sky130_fd_sc_hd__diode_2
*CAP
1 mgmt_gpio_in[17] 0.0010782
2 *158:A 5.12629e-05
3 *117:DIODE 0.000171897
4 *11:11 0.00130136
5 *11:11 mgmt_gpio_oeb_buf[0] 0.000212669
6 *11:11 mgmt_gpio_out_buf[10] 0
7 *11:11 mgmt_gpio_out_buf[11] 0
8 *11:11 mgmt_gpio_out_buf[16] 5.83121e-06
9 *11:11 mgmt_gpio_out_buf[18] 0.00017181
10 *11:11 mgmt_gpio_out_buf[9] 6.15141e-06
11 *11:11 *97:DIODE 0
12 *11:11 *123:DIODE 5.99925e-05
13 *11:11 *124:DIODE 6.9221e-05
14 *11:11 *163:A 6.68849e-05
15 *11:11 *62:5 0.000451466
16 *10:11 *11:11 0.00014392
*RES
1 mgmt_gpio_in[17] *11:11 14.2123 
2 *11:11 *117:DIODE 3.43 
3 *11:11 *158:A 2.47 
*END

*D_NET *12 0.00710234
*CONN
*P mgmt_gpio_in[18] I
*I *119:DIODE I *D sky130_fd_sc_hd__diode_2
*I *160:A I *D sky130_fd_sc_hd__clkbuf_8
*CAP
1 mgmt_gpio_in[18] 0.000369788
2 *119:DIODE 0.00150069
3 *160:A 2.14552e-05
4 *12:11 0.00189193
5 *119:DIODE mgmt_gpio_in_buf[17] 0.000173207
6 *119:DIODE mgmt_gpio_in_buf[18] 0.00030822
7 *119:DIODE mgmt_gpio_out_buf[17] 0.000143547
8 *119:DIODE mgmt_gpio_out_buf[7] 0.00118371
9 *119:DIODE mgmt_gpio_out_buf[8] 9.22403e-05
10 *119:DIODE *88:DIODE 0.000196177
11 *119:DIODE *93:DIODE 0.000126075
12 *119:DIODE *94:DIODE 0.000136313
13 *119:DIODE *123:DIODE 0
14 *119:DIODE *125:DIODE 2.76356e-05
15 *119:DIODE *135:A 0
16 *119:DIODE *19:10 0.000232403
17 *119:DIODE *43:23 7.77305e-05
18 *119:DIODE *48:11 0
19 *119:DIODE *64:8 0.000242782
20 *12:11 mgmt_gpio_oeb_buf[1] 0.000108773
21 *12:11 mgmt_gpio_oeb_buf[2] 8.9053e-05
22 *12:11 *93:DIODE 7.54579e-05
23 *12:11 *57:8 0
24 *12:11 *59:12 0.000105158
*RES
1 mgmt_gpio_in[18] *12:11 7.19003 
2 *12:11 *160:A 1.96 
3 *12:11 *119:DIODE 45.985 
*END

*D_NET *13 0.00882228
*CONN
*P mgmt_gpio_in[1] I
*I *100:DIODE I *D sky130_fd_sc_hd__diode_2
*I *141:A I *D sky130_fd_sc_hd__clkbuf_8
*CAP
1 mgmt_gpio_in[1] 0.000919407
2 *100:DIODE 0.00042749
3 *141:A 0.000589048
4 *13:19 0.00193594
5 *100:DIODE mgmt_gpio_out_buf[16] 0.000298667
6 *100:DIODE *90:DIODE 0.000196669
7 *100:DIODE *92:DIODE 4.43212e-05
8 *100:DIODE *14:13 0.000196669
9 *141:A mgmt_gpio_out_buf[3] 0.000223036
10 *141:A mgmt_gpio_out_buf[4] 0
11 *141:A *102:DIODE 0.000159964
12 *141:A *14:13 0
13 *141:A *15:17 0.000941854
14 *141:A *51:12 0.000102503
15 *141:A *52:8 4.13443e-05
16 *141:A *55:8 4.82863e-05
17 *13:19 mgmt_gpio_in_buf[8] 0.000287842
18 *13:19 mgmt_gpio_out_buf[14] 9.57145e-05
19 *13:19 mgmt_gpio_out_buf[1] 0.000873883
20 *13:19 mgmt_gpio_out_buf[2] 5.59048e-05
21 *13:19 mgmt_gpio_out_buf[4] 0
22 *13:19 *91:DIODE 0.000412856
23 *13:19 *14:13 0
24 *13:19 *15:17 8.84407e-05
25 *13:19 *53:14 0.00014294
26 *140:A *141:A 0.0007395
27 *3:10 *13:19 0
*RES
1 mgmt_gpio_in[1] *13:19 26.225 
2 *13:19 *141:A 21.375 
3 *13:19 *100:DIODE 11.64 
*END

*D_NET *14 0.00750345
*CONN
*P mgmt_gpio_in[2] I
*I *101:DIODE I *D sky130_fd_sc_hd__diode_2
*I *142:A I *D sky130_fd_sc_hd__clkbuf_8
*CAP
1 mgmt_gpio_in[2] 0.000839523
2 *101:DIODE 0.000346749
3 *142:A 0.000752282
4 *14:13 0.00193855
5 *101:DIODE mgmt_gpio_out_buf[16] 0.000122806
6 *101:DIODE *92:DIODE 0.000227777
7 *142:A mgmt_gpio_in_buf[18] 0
8 *142:A mgmt_gpio_out_buf[11] 0.000246101
9 *142:A mgmt_gpio_out_buf[16] 0.000118527
10 *142:A mgmt_gpio_out_buf[4] 0.000282471
11 *142:A *102:DIODE 8.87982e-05
12 *142:A *103:DIODE 0.000164679
13 *142:A *128:A 3.39944e-05
14 *142:A *137:A 0.000222119
15 *142:A *146:A 1.08758e-05
16 *142:A *16:5 0.000459429
17 *142:A *18:16 2.62017e-05
18 *142:A *43:23 0.000242884
19 *142:A *50:8 6.73424e-05
20 *14:13 mgmt_gpio_out_buf[2] 0
21 *14:13 mgmt_gpio_out_buf[3] 0.000929904
22 *14:13 mgmt_gpio_out_buf[4] 0.000103298
23 *14:13 *90:DIODE 1.91597e-05
24 *14:13 *106:DIODE 0
25 *14:13 *52:8 6.33103e-05
26 *100:DIODE *14:13 0.000196669
27 *141:A *14:13 0
28 *13:19 *14:13 0
*RES
1 mgmt_gpio_in[2] *14:13 19.93 
2 *14:13 *142:A 25.93 
3 *14:13 *101:DIODE 7.845 
*END

*D_NET *15 0.00595685
*CONN
*P mgmt_gpio_in[3] I
*I *143:A I *D sky130_fd_sc_hd__clkbuf_8
*I *102:DIODE I *D sky130_fd_sc_hd__diode_2
*CAP
1 mgmt_gpio_in[3] 0.00107975
2 *143:A 0
3 *102:DIODE 0.000364251
4 *15:17 0.001444
5 *102:DIODE mgmt_gpio_out_buf[4] 0.000109386
6 *102:DIODE *51:12 0.000154557
7 *15:17 mgmt_gpio_in_buf[18] 0
8 *15:17 mgmt_gpio_in_buf[9] 0.000729194
9 *15:17 mgmt_gpio_out_buf[16] 8.40269e-05
10 *15:17 mgmt_gpio_out_buf[3] 0.000291684
11 *15:17 mgmt_gpio_out_buf[4] 0
12 *15:17 *51:12 0.000420936
13 *141:A *102:DIODE 0.000159964
14 *141:A *15:17 0.000941854
15 *142:A *102:DIODE 8.87982e-05
16 *13:19 *15:17 8.84407e-05
*RES
1 mgmt_gpio_in[3] *15:17 29.98 
2 *15:17 *102:DIODE 9.39 
3 *15:17 *143:A 3.6 
*END

*D_NET *16 0.00517418
*CONN
*P mgmt_gpio_in[4] I
*I *144:A I *D sky130_fd_sc_hd__clkbuf_8
*I *103:DIODE I *D sky130_fd_sc_hd__diode_2
*CAP
1 mgmt_gpio_in[4] 0.000538856
2 *144:A 0.000129952
3 *103:DIODE 0.000147001
4 *16:5 0.000815809
5 *103:DIODE mgmt_gpio_out_buf[4] 1.1561e-05
6 *103:DIODE *128:A 0.000141599
7 *103:DIODE *137:A 3.64998e-06
8 *103:DIODE *43:23 3.64998e-06
9 *103:DIODE *49:16 1.0418e-05
10 *16:5 mgmt_gpio_in_buf[13] 1.95849e-05
11 *16:5 mgmt_gpio_in_buf[16] 0.000104671
12 *16:5 mgmt_gpio_out_buf[16] 4.82117e-05
13 *16:5 mgmt_gpio_out_buf[4] 0.00162414
14 *16:5 mgmt_gpio_out_buf[5] 0
15 *16:5 *18:16 0.000644523
16 *99:DIODE *144:A 0.000306448
17 *142:A *103:DIODE 0.000164679
18 *142:A *16:5 0.000459429
*RES
1 mgmt_gpio_in[4] *16:5 19.305 
2 *16:5 *103:DIODE 6.63 
3 *16:5 *144:A 6.465 
*END

*D_NET *17 0.0048831
*CONN
*P mgmt_gpio_in[5] I
*I *104:DIODE I *D sky130_fd_sc_hd__diode_2
*I *145:A I *D sky130_fd_sc_hd__clkbuf_8
*CAP
1 mgmt_gpio_in[5] 0.00112527
2 *104:DIODE 0
3 *145:A 0.000251332
4 *17:20 0.0013766
5 *145:A mgmt_gpio_out_buf[3] 0.000452327
6 *17:20 mgmt_gpio_in_buf[10] 0.000289229
7 *17:20 mgmt_gpio_in_buf[12] 1.79483e-05
8 *17:20 mgmt_gpio_in_buf[13] 0
9 *17:20 mgmt_gpio_in_buf[15] 7.50972e-05
10 *17:20 mgmt_gpio_in_buf[16] 0.000173979
11 *17:20 mgmt_gpio_out_buf[3] 7.00053e-05
12 *17:20 mgmt_gpio_out_buf[5] 0.000431055
13 *17:20 mgmt_gpio_out_buf[6] 0.000279584
14 *17:20 mgmt_gpio_out_buf[7] 0
15 *17:20 *18:16 2.09302e-06
16 *17:20 *19:10 7.76294e-05
17 *17:20 *48:11 0.000260949
*RES
1 mgmt_gpio_in[5] *17:20 28.47 
2 *17:20 *145:A 6.715 
3 *17:20 *104:DIODE 1.6 
*END

*D_NET *18 0.00404333
*CONN
*P mgmt_gpio_in[6] I
*I *105:DIODE I *D sky130_fd_sc_hd__diode_2
*I *146:A I *D sky130_fd_sc_hd__clkbuf_8
*CAP
1 mgmt_gpio_in[6] 0.000713879
2 *105:DIODE 0
3 *146:A 0.000213728
4 *18:16 0.000927607
5 *18:16 mgmt_gpio_in_buf[11] 0.000357042
6 *18:16 mgmt_gpio_in_buf[13] 2.89182e-05
7 *18:16 mgmt_gpio_in_buf[14] 7.50267e-05
8 *18:16 mgmt_gpio_in_buf[15] 1.79536e-05
9 *18:16 mgmt_gpio_in_buf[16] 0.000111202
10 *18:16 mgmt_gpio_in_buf[18] 0
11 *18:16 mgmt_gpio_out_buf[16] 0.000111448
12 *18:16 mgmt_gpio_out_buf[6] 0.000453432
13 *18:16 mgmt_gpio_out_buf[7] 0
14 *18:16 *150:A 0.000120655
15 *18:16 *21:14 0.000228746
16 *142:A *146:A 1.08758e-05
17 *142:A *18:16 2.62017e-05
18 *16:5 *18:16 0.000644523
19 *17:20 *18:16 2.09302e-06
*RES
1 mgmt_gpio_in[6] *18:16 24.18 
2 *18:16 *146:A 4.645 
3 *18:16 *105:DIODE 1.6 
*END

*D_NET *19 0.00369467
*CONN
*P mgmt_gpio_in[7] I
*I *106:DIODE I *D sky130_fd_sc_hd__diode_2
*I *147:A I *D sky130_fd_sc_hd__clkbuf_8
*CAP
1 mgmt_gpio_in[7] 0.000740361
2 *106:DIODE 0.000257055
3 *147:A 0
4 *19:10 0.000997416
5 *106:DIODE mgmt_gpio_out_buf[2] 6.13356e-05
6 *19:10 mgmt_gpio_in_buf[15] 0.000307613
7 *19:10 mgmt_gpio_in_buf[17] 0.000493953
8 *19:10 mgmt_gpio_out_buf[7] 0.000284791
9 *19:10 mgmt_gpio_out_buf[8] 7.78501e-05
10 *19:10 *109:DIODE 4.60061e-05
11 *19:10 *20:10 2.09302e-06
12 *110:DIODE *19:10 0.000116158
13 *119:DIODE *19:10 0.000232403
14 *14:13 *106:DIODE 0
15 *17:20 *19:10 7.76294e-05
*RES
1 mgmt_gpio_in[7] *19:10 19.19 
2 *19:10 *147:A 1.6 
3 *19:10 *106:DIODE 9.5 
*END

*D_NET *20 0.00266893
*CONN
*P mgmt_gpio_in[8] I
*I *108:DIODE I *D sky130_fd_sc_hd__diode_2
*I *149:A I *D sky130_fd_sc_hd__clkbuf_8
*CAP
1 mgmt_gpio_in[8] 0.000836487
2 *108:DIODE 0
3 *149:A 0.000211891
4 *20:10 0.00104838
5 *20:10 mgmt_gpio_in_buf[13] 0.000112416
6 *20:10 mgmt_gpio_in_buf[14] 0.000113123
7 *20:10 mgmt_gpio_out_buf[14] 2.40379e-05
8 *20:10 mgmt_gpio_out_buf[8] 0.000236993
9 *20:10 mgmt_gpio_out_buf[9] 0
10 *20:10 *21:14 0
11 *154:A *20:10 8.35068e-05
12 *19:10 *20:10 2.09302e-06
*RES
1 mgmt_gpio_in[8] *20:10 13.565 
2 *20:10 *149:A 4.48 
3 *20:10 *108:DIODE 1.6 
*END

*D_NET *21 0.00344398
*CONN
*P mgmt_gpio_in[9] I
*I *150:A I *D sky130_fd_sc_hd__clkbuf_8
*I *109:DIODE I *D sky130_fd_sc_hd__diode_2
*CAP
1 mgmt_gpio_in[9] 0.000676012
2 *150:A 7.27892e-05
3 *109:DIODE 0.000120664
4 *21:14 0.000869465
5 *109:DIODE mgmt_gpio_in_buf[13] 0.000109541
6 *109:DIODE mgmt_gpio_in_buf[16] 5.64064e-05
7 *150:A mgmt_gpio_in_buf[11] 3.83194e-05
8 *21:14 mgmt_gpio_in_buf[10] 4.66108e-05
9 *21:14 mgmt_gpio_in_buf[11] 0.000210835
10 *21:14 mgmt_gpio_out_buf[10] 0
11 *21:14 mgmt_gpio_out_buf[9] 0.000458257
12 *110:DIODE *21:14 8.23457e-05
13 *4:8 *21:14 0.000307327
14 *18:16 *150:A 0.000120655
15 *18:16 *21:14 0.000228746
16 *19:10 *109:DIODE 4.60061e-05
17 *20:10 *21:14 0
*RES
1 mgmt_gpio_in[9] *21:14 16.925 
2 *21:14 *109:DIODE 7.775 
3 *21:14 *150:A 3.085 
*END

*D_NET *22 0.0010386
*CONN
*P mgmt_gpio_in_buf[0] O
*I *140:X O *D sky130_fd_sc_hd__clkbuf_8
*CAP
1 mgmt_gpio_in_buf[0] 0.000346521
2 *140:X 0.000346521
3 mgmt_gpio_in_buf[0] mgmt_gpio_in_buf[1] 0.000101325
4 mgmt_gpio_in_buf[0] *43:23 0.00017271
5 mgmt_gpio_in_buf[0] *52:8 0
6 mgmt_gpio_in_buf[0] *53:14 7.15209e-05
7 mgmt_gpio_in_buf[0] *54:14 0
*RES
1 *140:X mgmt_gpio_in_buf[0] 6.80657 
*END

*D_NET *23 0.00488992
*CONN
*P mgmt_gpio_in_buf[10] O
*I *151:X O *D sky130_fd_sc_hd__clkbuf_8
*CAP
1 mgmt_gpio_in_buf[10] 0.00131641
2 *151:X 0.00131641
3 mgmt_gpio_in_buf[10] mgmt_gpio_in_buf[11] 0.00102631
4 mgmt_gpio_in_buf[10] mgmt_gpio_in_buf[12] 6.78224e-05
5 mgmt_gpio_in_buf[10] mgmt_gpio_in_buf[15] 0.000108616
6 mgmt_gpio_in_buf[10] mgmt_gpio_in_buf[9] 0.00020321
7 mgmt_gpio_in_buf[10] mgmt_gpio_out_buf[6] 0.0005153
8 *17:20 mgmt_gpio_in_buf[10] 0.000289229
9 *21:14 mgmt_gpio_in_buf[10] 4.66108e-05
*RES
1 *151:X mgmt_gpio_in_buf[10] 13.158 
*END

*D_NET *24 0.00578809
*CONN
*P mgmt_gpio_in_buf[11] O
*I *152:X O *D sky130_fd_sc_hd__clkbuf_8
*CAP
1 mgmt_gpio_in_buf[11] 0.00172256
2 *152:X 0.00172256
3 mgmt_gpio_in_buf[11] mgmt_gpio_in_buf[12] 0.000330801
4 mgmt_gpio_in_buf[11] mgmt_gpio_in_buf[13] 0.000142454
5 mgmt_gpio_in_buf[11] mgmt_gpio_in_buf[16] 0
6 mgmt_gpio_in_buf[11] mgmt_gpio_in_buf[18] 0
7 mgmt_gpio_in_buf[11] mgmt_gpio_out_buf[5] 0
8 mgmt_gpio_in_buf[10] mgmt_gpio_in_buf[11] 0.00102631
9 *110:DIODE mgmt_gpio_in_buf[11] 3.83194e-05
10 *150:A mgmt_gpio_in_buf[11] 3.83194e-05
11 *4:8 mgmt_gpio_in_buf[11] 0.000198881
12 *18:16 mgmt_gpio_in_buf[11] 0.000357042
13 *21:14 mgmt_gpio_in_buf[11] 0.000210835
*RES
1 *152:X mgmt_gpio_in_buf[11] 21.6219 
*END

*D_NET *25 0.00440251
*CONN
*P mgmt_gpio_in_buf[12] O
*I *153:X O *D sky130_fd_sc_hd__clkbuf_8
*CAP
1 mgmt_gpio_in_buf[12] 0.00158207
2 *153:X 0.00158207
3 mgmt_gpio_in_buf[12] mgmt_gpio_in_buf[13] 0.000296856
4 mgmt_gpio_in_buf[12] mgmt_gpio_in_buf[14] 0
5 mgmt_gpio_in_buf[12] mgmt_gpio_out_buf[15] 0.000280543
6 mgmt_gpio_in_buf[12] mgmt_gpio_out_buf[7] 0
7 mgmt_gpio_in_buf[10] mgmt_gpio_in_buf[12] 6.78224e-05
8 mgmt_gpio_in_buf[11] mgmt_gpio_in_buf[12] 0.000330801
9 *157:A mgmt_gpio_in_buf[12] 0.000196366
10 *10:11 mgmt_gpio_in_buf[12] 4.80285e-05
11 *17:20 mgmt_gpio_in_buf[12] 1.79483e-05
*RES
1 *153:X mgmt_gpio_in_buf[12] 13.7746 
*END

*D_NET *26 0.00374564
*CONN
*P mgmt_gpio_in_buf[13] O
*I *154:X O *D sky130_fd_sc_hd__clkbuf_8
*CAP
1 mgmt_gpio_in_buf[13] 0.00129445
2 *154:X 0.00129445
3 mgmt_gpio_in_buf[13] mgmt_gpio_in_buf[14] 0.000233539
4 mgmt_gpio_in_buf[13] mgmt_gpio_in_buf[16] 0.000127596
5 mgmt_gpio_in_buf[13] mgmt_gpio_out_buf[5] 8.58453e-05
6 mgmt_gpio_in_buf[11] mgmt_gpio_in_buf[13] 0.000142454
7 mgmt_gpio_in_buf[12] mgmt_gpio_in_buf[13] 0.000296856
8 *109:DIODE mgmt_gpio_in_buf[13] 0.000109541
9 *16:5 mgmt_gpio_in_buf[13] 1.95849e-05
10 *17:20 mgmt_gpio_in_buf[13] 0
11 *18:16 mgmt_gpio_in_buf[13] 2.89182e-05
12 *20:10 mgmt_gpio_in_buf[13] 0.000112416
*RES
1 *154:X mgmt_gpio_in_buf[13] 14.404 
*END

*D_NET *27 0.00520302
*CONN
*P mgmt_gpio_in_buf[14] O
*I *155:X O *D sky130_fd_sc_hd__clkbuf_8
*CAP
1 mgmt_gpio_in_buf[14] 0.00153537
2 *155:X 0.00153537
3 mgmt_gpio_in_buf[14] mgmt_gpio_in_buf[15] 0.00145225
4 mgmt_gpio_in_buf[14] mgmt_gpio_out_buf[7] 0
5 mgmt_gpio_in_buf[12] mgmt_gpio_in_buf[14] 0
6 mgmt_gpio_in_buf[13] mgmt_gpio_in_buf[14] 0.000233539
7 *154:A mgmt_gpio_in_buf[14] 0.000154168
8 *7:10 mgmt_gpio_in_buf[14] 0.000104174
9 *18:16 mgmt_gpio_in_buf[14] 7.50267e-05
10 *20:10 mgmt_gpio_in_buf[14] 0.000113123
*RES
1 *155:X mgmt_gpio_in_buf[14] 16.7706 
*END

*D_NET *28 0.00470705
*CONN
*P mgmt_gpio_in_buf[15] O
*I *156:X O *D sky130_fd_sc_hd__clkbuf_8
*CAP
1 mgmt_gpio_in_buf[15] 0.00119026
2 *156:X 0.00119026
3 mgmt_gpio_in_buf[15] mgmt_gpio_in_buf[16] 0.000351136
4 mgmt_gpio_in_buf[15] mgmt_gpio_in_buf[17] 0
5 mgmt_gpio_in_buf[15] mgmt_gpio_out_buf[6] 1.38676e-05
6 mgmt_gpio_in_buf[15] mgmt_gpio_out_buf[7] 0
7 mgmt_gpio_in_buf[10] mgmt_gpio_in_buf[15] 0.000108616
8 mgmt_gpio_in_buf[14] mgmt_gpio_in_buf[15] 0.00145225
9 *17:20 mgmt_gpio_in_buf[15] 7.50972e-05
10 *18:16 mgmt_gpio_in_buf[15] 1.79536e-05
11 *19:10 mgmt_gpio_in_buf[15] 0.000307613
*RES
1 *156:X mgmt_gpio_in_buf[15] 13.028 
*END

*D_NET *29 0.00372289
*CONN
*P mgmt_gpio_in_buf[16] O
*I *157:X O *D sky130_fd_sc_hd__clkbuf_8
*CAP
1 mgmt_gpio_in_buf[16] 0.00113714
2 *157:X 0.00113714
3 mgmt_gpio_in_buf[16] mgmt_gpio_in_buf[17] 0.000229202
4 mgmt_gpio_in_buf[16] mgmt_gpio_in_buf[18] 3.64998e-06
5 mgmt_gpio_in_buf[16] mgmt_gpio_out_buf[15] 8.23457e-05
6 mgmt_gpio_in_buf[16] mgmt_gpio_out_buf[5] 0.00020843
7 mgmt_gpio_in_buf[11] mgmt_gpio_in_buf[16] 0
8 mgmt_gpio_in_buf[13] mgmt_gpio_in_buf[16] 0.000127596
9 mgmt_gpio_in_buf[15] mgmt_gpio_in_buf[16] 0.000351136
10 *109:DIODE mgmt_gpio_in_buf[16] 5.64064e-05
11 *16:5 mgmt_gpio_in_buf[16] 0.000104671
12 *17:20 mgmt_gpio_in_buf[16] 0.000173979
13 *18:16 mgmt_gpio_in_buf[16] 0.000111202
*RES
1 *157:X mgmt_gpio_in_buf[16] 18.9654 
*END

*D_NET *30 0.00585847
*CONN
*P mgmt_gpio_in_buf[17] O
*I *158:X O *D sky130_fd_sc_hd__clkbuf_8
*CAP
1 mgmt_gpio_in_buf[17] 0.00175146
2 *158:X 0.00175146
3 mgmt_gpio_in_buf[17] mgmt_gpio_in_buf[18] 0.000586015
4 mgmt_gpio_in_buf[17] mgmt_gpio_out_buf[16] 7.05395e-05
5 mgmt_gpio_in_buf[17] mgmt_gpio_out_buf[7] 5.98004e-06
6 mgmt_gpio_in_buf[17] mgmt_gpio_out_buf[8] 0.000796647
7 mgmt_gpio_in_buf[15] mgmt_gpio_in_buf[17] 0
8 mgmt_gpio_in_buf[16] mgmt_gpio_in_buf[17] 0.000229202
9 *119:DIODE mgmt_gpio_in_buf[17] 0.000173207
10 *19:10 mgmt_gpio_in_buf[17] 0.000493953
*RES
1 *158:X mgmt_gpio_in_buf[17] 17.9146 
*END

*D_NET *31 0.00900586
*CONN
*P mgmt_gpio_in_buf[18] O
*I *160:X O *D sky130_fd_sc_hd__clkbuf_8
*CAP
1 mgmt_gpio_in_buf[18] 0.00222994
2 *160:X 0.00222994
3 mgmt_gpio_in_buf[18] mgmt_gpio_out_buf[11] 0
4 mgmt_gpio_in_buf[18] mgmt_gpio_out_buf[13] 0.000206123
5 mgmt_gpio_in_buf[18] mgmt_gpio_out_buf[15] 9.20784e-05
6 mgmt_gpio_in_buf[18] mgmt_gpio_out_buf[16] 0
7 mgmt_gpio_in_buf[18] mgmt_gpio_out_buf[4] 0.000820216
8 mgmt_gpio_in_buf[18] mgmt_gpio_out_buf[5] 0.000993565
9 mgmt_gpio_in_buf[18] mgmt_gpio_out_buf[7] 8.69583e-05
10 mgmt_gpio_in_buf[18] *93:DIODE 0.000280985
11 mgmt_gpio_in_buf[18] *164:A 0.000198618
12 mgmt_gpio_in_buf[18] *43:23 0
13 mgmt_gpio_in_buf[18] *48:11 0.000507713
14 mgmt_gpio_in_buf[18] *49:16 0.000461849
15 mgmt_gpio_in_buf[11] mgmt_gpio_in_buf[18] 0
16 mgmt_gpio_in_buf[16] mgmt_gpio_in_buf[18] 3.64998e-06
17 mgmt_gpio_in_buf[17] mgmt_gpio_in_buf[18] 0.000586015
18 *119:DIODE mgmt_gpio_in_buf[18] 0.00030822
19 *142:A mgmt_gpio_in_buf[18] 0
20 *15:17 mgmt_gpio_in_buf[18] 0
21 *18:16 mgmt_gpio_in_buf[18] 0
*RES
1 *160:X mgmt_gpio_in_buf[18] 48.1456 
*END

*D_NET *32 0.00109949
*CONN
*P mgmt_gpio_in_buf[1] O
*I *141:X O *D sky130_fd_sc_hd__clkbuf_8
*CAP
1 mgmt_gpio_in_buf[1] 0.000381088
2 *141:X 0.000381088
3 mgmt_gpio_in_buf[1] mgmt_gpio_in_buf[2] 0.000235986
4 mgmt_gpio_in_buf[1] *52:8 0
5 mgmt_gpio_in_buf[1] *54:14 0
6 mgmt_gpio_in_buf[0] mgmt_gpio_in_buf[1] 0.000101325
*RES
1 *141:X mgmt_gpio_in_buf[1] 6.4587 
*END

*D_NET *33 0.00099305
*CONN
*P mgmt_gpio_in_buf[2] O
*I *142:X O *D sky130_fd_sc_hd__clkbuf_8
*CAP
1 mgmt_gpio_in_buf[2] 0.000292177
2 *142:X 0.000292177
3 mgmt_gpio_in_buf[2] mgmt_gpio_in_buf[3] 0.00017271
4 mgmt_gpio_in_buf[2] *52:8 0
5 mgmt_gpio_in_buf[2] *54:14 0
6 mgmt_gpio_in_buf[1] mgmt_gpio_in_buf[2] 0.000235986
*RES
1 *142:X mgmt_gpio_in_buf[2] 5.53157 
*END

*D_NET *34 0.000857138
*CONN
*P mgmt_gpio_in_buf[3] O
*I *143:X O *D sky130_fd_sc_hd__clkbuf_8
*CAP
1 mgmt_gpio_in_buf[3] 0.000274507
2 *143:X 0.000274507
3 mgmt_gpio_in_buf[3] mgmt_gpio_in_buf[4] 0.00012532
4 mgmt_gpio_in_buf[3] *52:8 0
5 mgmt_gpio_in_buf[3] *54:14 1.00941e-05
6 mgmt_gpio_in_buf[2] mgmt_gpio_in_buf[3] 0.00017271
*RES
1 *143:X mgmt_gpio_in_buf[3] 5.02157 
*END

*D_NET *35 0.00108713