*SPEF "ieee 1481-1999"
*DESIGN "mprj2_logic_high"
*DATE "11:11:11 Fri 11 11, 1111"
*VENDOR "OpenRCX"
*PROGRAM "Parallel Extraction"
*VERSION "1.0"
*DESIGN_FLOW "NAME_SCOPE LOCAL" "PIN_CAP NONE"
*DIVIDER /
*DELIMITER :
*BUS_DELIMITER []
*T_UNIT 1 NS
*C_UNIT 1 PF
*R_UNIT 1 OHM
*L_UNIT 1 HENRY

*NAME_MAP
*1 HI
*2 FILLER_0_109
*3 FILLER_0_113
*4 FILLER_0_125
*5 FILLER_0_137
*6 FILLER_0_141
*7 FILLER_0_15
*8 FILLER_0_153
*9 FILLER_0_165
*10 FILLER_0_169
*11 FILLER_0_181
*12 FILLER_0_193
*13 FILLER_0_197
*14 FILLER_0_209
*15 FILLER_0_213
*16 FILLER_0_27
*17 FILLER_0_29
*18 FILLER_0_3
*19 FILLER_0_41
*20 FILLER_0_53
*21 FILLER_0_57
*22 FILLER_0_69
*23 FILLER_0_81
*24 FILLER_0_85
*25 FILLER_0_97
*26 FILLER_1_107
*27 FILLER_1_111
*28 FILLER_1_113
*29 FILLER_1_125
*30 FILLER_1_137
*31 FILLER_1_141
*32 FILLER_1_15
*33 FILLER_1_153
*34 FILLER_1_165
*35 FILLER_1_169
*36 FILLER_1_181
*37 FILLER_1_193
*38 FILLER_1_197
*39 FILLER_1_209
*40 FILLER_1_213
*41 FILLER_1_27
*42 FILLER_1_29
*43 FILLER_1_3
*44 FILLER_1_41
*45 FILLER_1_53
*46 FILLER_1_57
*47 FILLER_1_69
*48 FILLER_1_81
*49 FILLER_1_85
*50 FILLER_1_91
*51 FILLER_1_95
*52 PHY_0
*53 PHY_1
*54 PHY_2
*55 PHY_3
*56 TAP_10
*57 TAP_11
*58 TAP_12
*59 TAP_13
*60 TAP_14
*61 TAP_15
*62 TAP_16
*63 TAP_17
*64 TAP_4
*65 TAP_5
*66 TAP_6
*67 TAP_7
*68 TAP_8
*69 TAP_9
*70 inst

*PORTS
HI O

*D_NET *1 0.00667596
*CONN
*P HI O
*I *70:HI O *D sky130_fd_sc_hd__conb_1
*CAP
1 HI 0.00333798
2 *70:HI 0.00333798
*RES
1 *70:HI HI 24.0614 
*END
