* NGSPICE file created from caravel_clocking.ext - technology: sky130A

* Black-box entry subcircuit for sky130_fd_sc_hd__tapvpwrvgnd_1 abstract view
.subckt sky130_fd_sc_hd__tapvpwrvgnd_1 VGND VPWR
.ends

* Black-box entry subcircuit for sky130_fd_sc_hd__dfrtp_1 abstract view
.subckt sky130_fd_sc_hd__dfrtp_1 CLK D RESET_B VGND VNB VPB VPWR Q
.ends

* Black-box entry subcircuit for sky130_fd_sc_hd__nand3_1 abstract view
.subckt sky130_fd_sc_hd__nand3_1 A B C VGND VNB VPB VPWR Y
.ends

* Black-box entry subcircuit for sky130_fd_sc_hd__xor2_1 abstract view
.subckt sky130_fd_sc_hd__xor2_1 A B VGND VNB VPB VPWR X
.ends

* Black-box entry subcircuit for sky130_fd_sc_hd__fill_1 abstract view
.subckt sky130_fd_sc_hd__fill_1 VGND VNB VPB VPWR
.ends

* Black-box entry subcircuit for sky130_fd_sc_hd__mux2_1 abstract view
.subckt sky130_fd_sc_hd__mux2_1 A0 A1 S VGND VNB VPB VPWR X
.ends

* Black-box entry subcircuit for sky130_fd_sc_hd__decap_12 abstract view
.subckt sky130_fd_sc_hd__decap_12 VGND VNB VPB VPWR
.ends

* Black-box entry subcircuit for sky130_fd_sc_hd__inv_2 abstract view
.subckt sky130_fd_sc_hd__inv_2 A VGND VNB VPB VPWR Y
.ends

* Black-box entry subcircuit for sky130_fd_sc_hd__decap_6 abstract view
.subckt sky130_fd_sc_hd__decap_6 VGND VNB VPB VPWR
.ends

* Black-box entry subcircuit for sky130_fd_sc_hd__clkbuf_2 abstract view
.subckt sky130_fd_sc_hd__clkbuf_2 A VGND VNB VPB VPWR X
.ends

* Black-box entry subcircuit for sky130_fd_sc_hd__nor2_1 abstract view
.subckt sky130_fd_sc_hd__nor2_1 A B VGND VNB VPB VPWR Y
.ends

* Black-box entry subcircuit for sky130_fd_sc_hd__decap_8 abstract view
.subckt sky130_fd_sc_hd__decap_8 VGND VNB VPB VPWR
.ends

* Black-box entry subcircuit for sky130_fd_sc_hd__decap_4 abstract view
.subckt sky130_fd_sc_hd__decap_4 VGND VNB VPB VPWR
.ends

* Black-box entry subcircuit for sky130_fd_sc_hd__decap_3 abstract view
.subckt sky130_fd_sc_hd__decap_3 VGND VNB VPB VPWR
.ends

* Black-box entry subcircuit for sky130_fd_sc_hd__a21bo_1 abstract view
.subckt sky130_fd_sc_hd__a21bo_1 A1 A2 B1_N VGND VNB VPB VPWR X
.ends

* Black-box entry subcircuit for sky130_fd_sc_hd__fill_2 abstract view
.subckt sky130_fd_sc_hd__fill_2 VGND VNB VPB VPWR
.ends

* Black-box entry subcircuit for sky130_fd_sc_hd__diode_2 abstract view
.subckt sky130_fd_sc_hd__diode_2 DIODE VGND VNB VPB VPWR
.ends

* Black-box entry subcircuit for sky130_fd_sc_hd__nand2_1 abstract view
.subckt sky130_fd_sc_hd__nand2_1 A B VGND VNB VPB VPWR Y
.ends

* Black-box entry subcircuit for sky130_fd_sc_hd__xnor2_1 abstract view
.subckt sky130_fd_sc_hd__xnor2_1 A B VGND VNB VPB VPWR Y
.ends

* Black-box entry subcircuit for sky130_fd_sc_hd__o21bai_1 abstract view
.subckt sky130_fd_sc_hd__o21bai_1 A1 A2 B1_N VGND VNB VPB VPWR Y
.ends

* Black-box entry subcircuit for sky130_fd_sc_hd__clkbuf_1 abstract view
.subckt sky130_fd_sc_hd__clkbuf_1 A VGND VNB VPB VPWR X
.ends

* Black-box entry subcircuit for sky130_fd_sc_hd__nand3b_1 abstract view
.subckt sky130_fd_sc_hd__nand3b_1 A_N B C VGND VNB VPB VPWR Y
.ends

* Black-box entry subcircuit for sky130_fd_sc_hd__o211ai_1 abstract view
.subckt sky130_fd_sc_hd__o211ai_1 A1 A2 B1 C1 VGND VNB VPB VPWR Y
.ends

* Black-box entry subcircuit for sky130_fd_sc_hd__or2b_1 abstract view
.subckt sky130_fd_sc_hd__or2b_1 A B_N VGND VNB VPB VPWR X
.ends

* Black-box entry subcircuit for sky130_fd_sc_hd__buf_2 abstract view
.subckt sky130_fd_sc_hd__buf_2 A VGND VNB VPB VPWR X
.ends

* Black-box entry subcircuit for sky130_fd_sc_hd__o2bb2ai_2 abstract view
.subckt sky130_fd_sc_hd__o2bb2ai_2 A1_N A2_N B1 B2 VGND VNB VPB VPWR Y
.ends

* Black-box entry subcircuit for sky130_fd_sc_hd__a21o_1 abstract view
.subckt sky130_fd_sc_hd__a21o_1 A1 A2 B1 VGND VNB VPB VPWR X
.ends

* Black-box entry subcircuit for sky130_fd_sc_hd__clkbuf_16 abstract view
.subckt sky130_fd_sc_hd__clkbuf_16 A VGND VNB VPB VPWR X
.ends

* Black-box entry subcircuit for sky130_fd_sc_hd__o21ai_1 abstract view
.subckt sky130_fd_sc_hd__o21ai_1 A1 A2 B1 VGND VNB VPB VPWR Y
.ends

* Black-box entry subcircuit for sky130_fd_sc_hd__nor3b_1 abstract view
.subckt sky130_fd_sc_hd__nor3b_1 A B C_N VGND VNB VPB VPWR Y
.ends

* Black-box entry subcircuit for sky130_fd_sc_hd__dfrtp_2 abstract view
.subckt sky130_fd_sc_hd__dfrtp_2 CLK D RESET_B VGND VNB VPB VPWR Q
.ends

* Black-box entry subcircuit for sky130_fd_sc_hd__dfrtn_1 abstract view
.subckt sky130_fd_sc_hd__dfrtn_1 CLK_N D RESET_B VGND VNB VPB VPWR Q
.ends

* Black-box entry subcircuit for sky130_fd_sc_hd__and2b_1 abstract view
.subckt sky130_fd_sc_hd__and2b_1 A_N B VGND VNB VPB VPWR X
.ends

* Black-box entry subcircuit for sky130_fd_sc_hd__dfstp_1 abstract view
.subckt sky130_fd_sc_hd__dfstp_1 CLK D SET_B VGND VNB VPB VPWR Q
.ends

* Black-box entry subcircuit for sky130_fd_sc_hd__nor3b_2 abstract view
.subckt sky130_fd_sc_hd__nor3b_2 A B C_N VGND VNB VPB VPWR Y
.ends

* Black-box entry subcircuit for sky130_fd_sc_hd__nor3_1 abstract view
.subckt sky130_fd_sc_hd__nor3_1 A B C VGND VNB VPB VPWR Y
.ends

* Black-box entry subcircuit for sky130_fd_sc_hd__dfrtp_4 abstract view
.subckt sky130_fd_sc_hd__dfrtp_4 CLK D RESET_B VGND VNB VPB VPWR Q
.ends

* Black-box entry subcircuit for sky130_fd_sc_hd__o2bb2ai_1 abstract view
.subckt sky130_fd_sc_hd__o2bb2ai_1 A1_N A2_N B1 B2 VGND VNB VPB VPWR Y
.ends

* Black-box entry subcircuit for sky130_fd_sc_hd__o21a_1 abstract view
.subckt sky130_fd_sc_hd__o21a_1 A1 A2 B1 VGND VNB VPB VPWR X
.ends

* Black-box entry subcircuit for sky130_fd_sc_hd__clkinv_2 abstract view
.subckt sky130_fd_sc_hd__clkinv_2 A VGND VNB VPB VPWR Y
.ends

* Black-box entry subcircuit for sky130_fd_sc_hd__and2_1 abstract view
.subckt sky130_fd_sc_hd__and2_1 A B VGND VNB VPB VPWR X
.ends

* Black-box entry subcircuit for sky130_fd_sc_hd__buf_12 abstract view
.subckt sky130_fd_sc_hd__buf_12 A VGND VNB VPB VPWR X
.ends

* Black-box entry subcircuit for sky130_fd_sc_hd__nand2_2 abstract view
.subckt sky130_fd_sc_hd__nand2_2 A B VGND VNB VPB VPWR Y
.ends

* Black-box entry subcircuit for sky130_fd_sc_hd__dfstp_4 abstract view
.subckt sky130_fd_sc_hd__dfstp_4 CLK D SET_B VGND VNB VPB VPWR Q
.ends

* Black-box entry subcircuit for sky130_fd_sc_hd__dfxtp_1 abstract view
.subckt sky130_fd_sc_hd__dfxtp_1 CLK D VGND VNB VPB VPWR Q
.ends

* Black-box entry subcircuit for sky130_fd_sc_hd__o21bai_2 abstract view
.subckt sky130_fd_sc_hd__o21bai_2 A1 A2 B1_N VGND VNB VPB VPWR Y
.ends

* Black-box entry subcircuit for sky130_fd_sc_hd__and2b_2 abstract view
.subckt sky130_fd_sc_hd__and2b_2 A_N B VGND VNB VPB VPWR X
.ends

* Black-box entry subcircuit for sky130_fd_sc_hd__conb_1 abstract view
.subckt sky130_fd_sc_hd__conb_1 VGND VNB VPB VPWR HI LO
.ends

* Black-box entry subcircuit for sky130_fd_sc_hd__o21ai_2 abstract view
.subckt sky130_fd_sc_hd__o21ai_2 A1 A2 B1 VGND VNB VPB VPWR Y
.ends

* Black-box entry subcircuit for sky130_fd_sc_hd__clkdlybuf4s25_1 abstract view
.subckt sky130_fd_sc_hd__clkdlybuf4s25_1 A VGND VNB VPB VPWR X
.ends

* Black-box entry subcircuit for sky130_fd_sc_hd__dlymetal6s2s_1 abstract view
.subckt sky130_fd_sc_hd__dlymetal6s2s_1 A VGND VNB VPB VPWR X
.ends

* Black-box entry subcircuit for sky130_fd_sc_hd__buf_1 abstract view
.subckt sky130_fd_sc_hd__buf_1 A VGND VNB VPB VPWR X
.ends

* Black-box entry subcircuit for sky130_fd_sc_hd__dlygate4sd1_1 abstract view
.subckt sky130_fd_sc_hd__dlygate4sd1_1 A VGND VNB VPB VPWR X
.ends

* Black-box entry subcircuit for sky130_fd_sc_hd__mux2_2 abstract view
.subckt sky130_fd_sc_hd__mux2_2 A0 A1 S VGND VNB VPB VPWR X
.ends

* Black-box entry subcircuit for sky130_fd_sc_hd__dfstp_2 abstract view
.subckt sky130_fd_sc_hd__dfstp_2 CLK D SET_B VGND VNB VPB VPWR Q
.ends

.subckt caravel_clocking VGND VPWR core_clk ext_clk ext_clk_sel ext_reset pll_clk
+ pll_clk90 resetb resetb_sync sel2[0] sel2[1] sel2[2] sel[0] sel[1] sel[2] user_clk
XTAP_199 VGND VPWR sky130_fd_sc_hd__tapvpwrvgnd_1
XTAP_188 VGND VPWR sky130_fd_sc_hd__tapvpwrvgnd_1
XTAP_177 VGND VPWR sky130_fd_sc_hd__tapvpwrvgnd_1
X_432_ _417_/A1 hold1/X _349_/S VGND VGND VPWR VPWR _432_/Q sky130_fd_sc_hd__dfrtp_1
X_294_ _294_/A _457_/Q _319_/C VGND VGND VPWR VPWR _294_/Y sky130_fd_sc_hd__nand3_1
X_363_ _448_/Q _363_/B VGND VGND VPWR VPWR _363_/X sky130_fd_sc_hd__xor2_1
XFILLER_12_87 VGND VGND VPWR VPWR sky130_fd_sc_hd__fill_1
X_415_ _414_/X _443_/Q _473_/Q VGND VGND VPWR VPWR _415_/X sky130_fd_sc_hd__mux2_1
XFILLER_6_118 VGND VGND VPWR VPWR sky130_fd_sc_hd__decap_12
X_277_ _459_/Q VGND VGND VPWR VPWR _279_/A sky130_fd_sc_hd__inv_2
XFILLER_5_140 VGND VGND VPWR VPWR sky130_fd_sc_hd__decap_6
XFILLER_5_195 VGND VGND VPWR VPWR sky130_fd_sc_hd__decap_6
Xclkbuf_1_1_0_pll_clk clkbuf_0_pll_clk/X VGND VGND VPWR VPWR _417_/A1 sky130_fd_sc_hd__clkbuf_2
XFILLER_9_77 VGND VGND VPWR VPWR sky130_fd_sc_hd__fill_1
XFILLER_0_79 VGND VGND VPWR VPWR sky130_fd_sc_hd__decap_12
X_329_ _438_/Q _422_/Q VGND VGND VPWR VPWR _329_/Y sky130_fd_sc_hd__nor2_1
XFILLER_19_183 VGND VGND VPWR VPWR sky130_fd_sc_hd__decap_8
XFILLER_15_98 VGND VGND VPWR VPWR sky130_fd_sc_hd__decap_6
XTAP_189 VGND VPWR sky130_fd_sc_hd__tapvpwrvgnd_1
XTAP_178 VGND VPWR sky130_fd_sc_hd__tapvpwrvgnd_1
XTAP_167 VGND VPWR sky130_fd_sc_hd__tapvpwrvgnd_1
XTAP_156 VGND VPWR sky130_fd_sc_hd__tapvpwrvgnd_1
XTAP_145 VGND VPWR sky130_fd_sc_hd__tapvpwrvgnd_1
XTAP_134 VGND VPWR sky130_fd_sc_hd__tapvpwrvgnd_1
XTAP_123 VGND VPWR sky130_fd_sc_hd__tapvpwrvgnd_1
XTAP_101 VGND VPWR sky130_fd_sc_hd__tapvpwrvgnd_1
XTAP_112 VGND VPWR sky130_fd_sc_hd__tapvpwrvgnd_1
X_431_ _417_/A1 _431_/D _349_/S VGND VGND VPWR VPWR _431_/Q sky130_fd_sc_hd__dfrtp_1
XFILLER_13_178 VGND VGND VPWR VPWR sky130_fd_sc_hd__decap_4
XFILLER_9_127 VGND VGND VPWR VPWR sky130_fd_sc_hd__decap_3
X_293_ _408_/X _289_/Y _292_/Y VGND VGND VPWR VPWR _458_/D sky130_fd_sc_hd__a21bo_1
X_362_ _447_/Q _446_/Q VGND VGND VPWR VPWR _363_/B sky130_fd_sc_hd__nor2_1
XFILLER_12_66 VGND VGND VPWR VPWR sky130_fd_sc_hd__decap_4
XFILLER_12_11 VGND VGND VPWR VPWR sky130_fd_sc_hd__fill_2
XANTENNA__468__RESET_B _349_/S VGND VGND VPWR VPWR sky130_fd_sc_hd__diode_2
X_276_ _276_/A _276_/B VGND VGND VPWR VPWR _461_/D sky130_fd_sc_hd__nand2_1
X_414_ _371_/Y _443_/Q _414_/S VGND VGND VPWR VPWR _414_/X sky130_fd_sc_hd__mux2_1
X_345_ _445_/Q _345_/B VGND VGND VPWR VPWR _445_/D sky130_fd_sc_hd__xnor2_1
X_259_ _256_/Y _261_/A _253_/B VGND VGND VPWR VPWR _260_/B sky130_fd_sc_hd__o21bai_1
XFILLER_0_14 VGND VGND VPWR VPWR sky130_fd_sc_hd__decap_12
XFILLER_2_100 VGND VGND VPWR VPWR sky130_fd_sc_hd__fill_2
XFILLER_2_133 VGND VGND VPWR VPWR sky130_fd_sc_hd__fill_1
XFILLER_2_166 VGND VGND VPWR VPWR sky130_fd_sc_hd__decap_3
X_328_ _328_/A _328_/B _420_/Q VGND VGND VPWR VPWR _328_/Y sky130_fd_sc_hd__nand3_1
XFILLER_18_87 VGND VGND VPWR VPWR sky130_fd_sc_hd__fill_2
Xoutput10 _399_/X VGND VGND VPWR VPWR core_clk sky130_fd_sc_hd__clkbuf_1
XTAP_179 VGND VPWR sky130_fd_sc_hd__tapvpwrvgnd_1
XTAP_168 VGND VPWR sky130_fd_sc_hd__tapvpwrvgnd_1
XTAP_157 VGND VPWR sky130_fd_sc_hd__tapvpwrvgnd_1
XTAP_146 VGND VPWR sky130_fd_sc_hd__tapvpwrvgnd_1
XTAP_135 VGND VPWR sky130_fd_sc_hd__tapvpwrvgnd_1
XTAP_124 VGND VPWR sky130_fd_sc_hd__tapvpwrvgnd_1
XTAP_102 VGND VPWR sky130_fd_sc_hd__tapvpwrvgnd_1
XTAP_113 VGND VPWR sky130_fd_sc_hd__tapvpwrvgnd_1
X_292_ _294_/A _458_/Q _319_/C VGND VGND VPWR VPWR _292_/Y sky130_fd_sc_hd__nand3_1
X_361_ _447_/Q _446_/Q VGND VGND VPWR VPWR _361_/Y sky130_fd_sc_hd__xnor2_1
X_430_ _417_/A1 _430_/D _349_/S VGND VGND VPWR VPWR _431_/D sky130_fd_sc_hd__dfrtp_1
XFILLER_10_116 VGND VGND VPWR VPWR sky130_fd_sc_hd__fill_1
X_275_ _352_/A _275_/B _275_/C VGND VGND VPWR VPWR _276_/B sky130_fd_sc_hd__nand3_1
X_413_ _412_/X _438_/Q _449_/Q VGND VGND VPWR VPWR _413_/X sky130_fd_sc_hd__mux2_1
XFILLER_5_131 VGND VGND VPWR VPWR sky130_fd_sc_hd__fill_2
X_344_ _436_/Q _370_/A _450_/Q VGND VGND VPWR VPWR _345_/B sky130_fd_sc_hd__nand3b_1
XFILLER_0_37 VGND VGND VPWR VPWR sky130_fd_sc_hd__fill_2
XFILLER_3_3 VGND VGND VPWR VPWR sky130_fd_sc_hd__decap_3
X_258_ _443_/Q _444_/Q _442_/Q _257_/Y VGND VGND VPWR VPWR _261_/A sky130_fd_sc_hd__o211ai_1
XFILLER_9_79 VGND VGND VPWR VPWR sky130_fd_sc_hd__fill_2
X_327_ _421_/Q _437_/Q VGND VGND VPWR VPWR _328_/B sky130_fd_sc_hd__or2b_1
XFILLER_18_11 VGND VGND VPWR VPWR sky130_fd_sc_hd__fill_2
XANTENNA__452__RESET_B _349_/S VGND VGND VPWR VPWR sky130_fd_sc_hd__diode_2
X_337__6 _459_/CLK VGND VGND VPWR VPWR _447_/CLK sky130_fd_sc_hd__inv_2
XFILLER_6_14 VGND VGND VPWR VPWR sky130_fd_sc_hd__decap_3
XFILLER_19_174 VGND VGND VPWR VPWR sky130_fd_sc_hd__decap_8
Xoutput11 _381_/Y VGND VGND VPWR VPWR resetb_sync sky130_fd_sc_hd__buf_2
XFILLER_16_166 VGND VGND VPWR VPWR sky130_fd_sc_hd__decap_3
XFILLER_15_34 VGND VGND VPWR VPWR sky130_fd_sc_hd__decap_6
XTAP_169 VGND VPWR sky130_fd_sc_hd__tapvpwrvgnd_1
XTAP_158 VGND VPWR sky130_fd_sc_hd__tapvpwrvgnd_1
XTAP_147 VGND VPWR sky130_fd_sc_hd__tapvpwrvgnd_1
XTAP_136 VGND VPWR sky130_fd_sc_hd__tapvpwrvgnd_1
XTAP_125 VGND VPWR sky130_fd_sc_hd__tapvpwrvgnd_1
XTAP_114 VGND VPWR sky130_fd_sc_hd__tapvpwrvgnd_1
XTAP_103 VGND VPWR sky130_fd_sc_hd__tapvpwrvgnd_1
X_360_ _275_/B _419_/X _235_/A _359_/Y VGND VGND VPWR VPWR _360_/Y sky130_fd_sc_hd__o2bb2ai_2
X_291_ _405_/X _289_/Y _290_/Y VGND VGND VPWR VPWR _459_/D sky130_fd_sc_hd__a21bo_1
XFILLER_12_35 VGND VGND VPWR VPWR sky130_fd_sc_hd__decap_4
X_274_ _352_/A _275_/B _275_/C VGND VGND VPWR VPWR _276_/A sky130_fd_sc_hd__a21o_1
X_412_ _363_/X _438_/Q _412_/S VGND VGND VPWR VPWR _412_/X sky130_fd_sc_hd__mux2_1
X_343_ _452_/Q _451_/Q VGND VGND VPWR VPWR _370_/A sky130_fd_sc_hd__nor2_1
XFILLER_0_27 VGND VGND VPWR VPWR sky130_fd_sc_hd__decap_6
XFILLER_2_157 VGND VGND VPWR VPWR sky130_fd_sc_hd__decap_4
X_257_ _468_/Q _467_/Q VGND VGND VPWR VPWR _257_/Y sky130_fd_sc_hd__nor2_1
X_326_ _421_/D _421_/Q VGND VGND VPWR VPWR _328_/A sky130_fd_sc_hd__or2b_1
XFILLER_11_201 VGND VGND VPWR VPWR sky130_fd_sc_hd__fill_1
X_309_ _309_/A _309_/B VGND VGND VPWR VPWR _403_/S sky130_fd_sc_hd__nor2_1
XFILLER_6_37 VGND VGND VPWR VPWR sky130_fd_sc_hd__fill_2
XANTENNA__445__SET_B _349_/S VGND VGND VPWR VPWR sky130_fd_sc_hd__diode_2
Xoutput12 _400_/X VGND VGND VPWR VPWR user_clk sky130_fd_sc_hd__clkbuf_1
XTAP_159 VGND VPWR sky130_fd_sc_hd__tapvpwrvgnd_1
XTAP_148 VGND VPWR sky130_fd_sc_hd__tapvpwrvgnd_1
XTAP_137 VGND VPWR sky130_fd_sc_hd__tapvpwrvgnd_1
XTAP_126 VGND VPWR sky130_fd_sc_hd__tapvpwrvgnd_1
XTAP_115 VGND VPWR sky130_fd_sc_hd__tapvpwrvgnd_1
XTAP_104 VGND VPWR sky130_fd_sc_hd__tapvpwrvgnd_1
XANTENNA_input8_A sel[1] VGND VGND VPWR VPWR sky130_fd_sc_hd__diode_2
X_290_ _294_/A _459_/Q _319_/C VGND VGND VPWR VPWR _290_/Y sky130_fd_sc_hd__nand3_1
XFILLER_12_14 VGND VGND VPWR VPWR sky130_fd_sc_hd__decap_6
Xclkbuf_0_pll_clk pll_clk VGND VGND VPWR VPWR clkbuf_0_pll_clk/X sky130_fd_sc_hd__clkbuf_16
XFILLER_8_196 VGND VGND VPWR VPWR sky130_fd_sc_hd__decap_6
X_273_ _461_/Q VGND VGND VPWR VPWR _275_/C sky130_fd_sc_hd__inv_2
X_411_ _410_/X _436_/Q _449_/Q VGND VGND VPWR VPWR _411_/X sky130_fd_sc_hd__mux2_1
X_342_ _340_/Y _338_/A _341_/Y VGND VGND VPWR VPWR _446_/D sky130_fd_sc_hd__o21ai_1
XFILLER_5_100 VGND VGND VPWR VPWR sky130_fd_sc_hd__fill_2
XANTENNA__446__RESET_B _349_/S VGND VGND VPWR VPWR sky130_fd_sc_hd__diode_2
XFILLER_2_114 VGND VGND VPWR VPWR sky130_fd_sc_hd__decap_3
XFILLER_2_125 VGND VGND VPWR VPWR sky130_fd_sc_hd__decap_8
XFILLER_13_90 VGND VGND VPWR VPWR sky130_fd_sc_hd__fill_2
X_256_ _256_/A _256_/B _462_/Q VGND VGND VPWR VPWR _256_/Y sky130_fd_sc_hd__nand3_1
XFILLER_1_180 VGND VGND VPWR VPWR sky130_fd_sc_hd__fill_2
X_325_ _325_/A VGND VGND VPWR VPWR _450_/D sky130_fd_sc_hd__clkbuf_1
X_239_ _473_/Q _237_/Y _238_/Y VGND VGND VPWR VPWR _239_/Y sky130_fd_sc_hd__o21bai_1
XFILLER_15_69 VGND VGND VPWR VPWR sky130_fd_sc_hd__fill_1
XFILLER_15_47 VGND VGND VPWR VPWR sky130_fd_sc_hd__decap_4
X_348__7 _399_/X VGND VGND VPWR VPWR _427_/CLK sky130_fd_sc_hd__inv_2
XTAP_149 VGND VPWR sky130_fd_sc_hd__tapvpwrvgnd_1
XTAP_138 VGND VPWR sky130_fd_sc_hd__tapvpwrvgnd_1
XTAP_127 VGND VPWR sky130_fd_sc_hd__tapvpwrvgnd_1
XTAP_116 VGND VPWR sky130_fd_sc_hd__tapvpwrvgnd_1
XTAP_105 VGND VPWR sky130_fd_sc_hd__tapvpwrvgnd_1
XFILLER_13_138 VGND VGND VPWR VPWR sky130_fd_sc_hd__fill_2
X_272_ _442_/Q VGND VGND VPWR VPWR _275_/B sky130_fd_sc_hd__inv_2
X_410_ _364_/Y _436_/Q _410_/S VGND VGND VPWR VPWR _410_/X sky130_fd_sc_hd__mux2_1
X_341_ _341_/A _392_/X VGND VGND VPWR VPWR _341_/Y sky130_fd_sc_hd__nand2_1
X_255_ _463_/Q VGND VGND VPWR VPWR _256_/B sky130_fd_sc_hd__inv_2
XFILLER_9_49 VGND VGND VPWR VPWR sky130_fd_sc_hd__decap_3
X_324_ _406_/X _450_/Q _436_/Q VGND VGND VPWR VPWR _325_/A sky130_fd_sc_hd__mux2_1
XANTENNA__428__SET_B _349_/S VGND VGND VPWR VPWR sky130_fd_sc_hd__diode_2
XFILLER_1_3 VGND VGND VPWR VPWR sky130_fd_sc_hd__decap_12
X_238_ _396_/X VGND VGND VPWR VPWR _238_/Y sky130_fd_sc_hd__inv_2
X_307_ _297_/Y _454_/Q _299_/Y VGND VGND VPWR VPWR _454_/D sky130_fd_sc_hd__a21bo_1
XANTENNA__430__RESET_B _349_/S VGND VGND VPWR VPWR sky130_fd_sc_hd__diode_2
XANTENNA__474__SET_B _349_/S VGND VGND VPWR VPWR sky130_fd_sc_hd__diode_2
XFILLER_19_155 VGND VGND VPWR VPWR sky130_fd_sc_hd__fill_1
XFILLER_19_90 VGND VGND VPWR VPWR sky130_fd_sc_hd__fill_1
XFILLER_10_92 VGND VGND VPWR VPWR sky130_fd_sc_hd__fill_2
XTAP_139 VGND VPWR sky130_fd_sc_hd__tapvpwrvgnd_1
XTAP_128 VGND VPWR sky130_fd_sc_hd__tapvpwrvgnd_1
XTAP_117 VGND VPWR sky130_fd_sc_hd__tapvpwrvgnd_1
XPHY_0 VGND VGND VPWR VPWR sky130_fd_sc_hd__decap_3
XFILLER_7_71 VGND VGND VPWR VPWR sky130_fd_sc_hd__decap_3
XTAP_106 VGND VPWR sky130_fd_sc_hd__tapvpwrvgnd_1
XFILLER_3_29 VGND VGND VPWR VPWR sky130_fd_sc_hd__fill_1
XFILLER_16_80 VGND VGND VPWR VPWR sky130_fd_sc_hd__decap_8
XFILLER_12_49 VGND VGND VPWR VPWR sky130_fd_sc_hd__decap_12
X_271_ _475_/Q _476_/Q _474_/Q VGND VGND VPWR VPWR _352_/A sky130_fd_sc_hd__nor3b_1
X_340_ _446_/Q VGND VGND VPWR VPWR _340_/Y sky130_fd_sc_hd__inv_2
XFILLER_5_146 VGND VGND VPWR VPWR sky130_fd_sc_hd__fill_1
XFILLER_5_157 VGND VGND VPWR VPWR sky130_fd_sc_hd__fill_1
X_469_ _471_/CLK _469_/D _349_/S VGND VGND VPWR VPWR _469_/Q sky130_fd_sc_hd__dfrtp_2
XFILLER_4_83 VGND VGND VPWR VPWR sky130_fd_sc_hd__decap_3
X_254_ _464_/Q VGND VGND VPWR VPWR _256_/A sky130_fd_sc_hd__inv_2
X_323_ _323_/A VGND VGND VPWR VPWR _451_/D sky130_fd_sc_hd__clkbuf_1
XANTENNA__434__SET_B _349_/S VGND VGND VPWR VPWR sky130_fd_sc_hd__diode_2
X_237_ _467_/Q _466_/Q VGND VGND VPWR VPWR _237_/Y sky130_fd_sc_hd__nor2_1
X_306_ _302_/B _305_/X _298_/Y VGND VGND VPWR VPWR _455_/D sky130_fd_sc_hd__o21ai_1
XFILLER_1_51 VGND VGND VPWR VPWR sky130_fd_sc_hd__fill_1
XFILLER_15_27 VGND VGND VPWR VPWR sky130_fd_sc_hd__decap_4
XTAP_129 VGND VPWR sky130_fd_sc_hd__tapvpwrvgnd_1
XTAP_118 VGND VPWR sky130_fd_sc_hd__tapvpwrvgnd_1
XPHY_1 VGND VGND VPWR VPWR sky130_fd_sc_hd__decap_3
XTAP_107 VGND VPWR sky130_fd_sc_hd__tapvpwrvgnd_1
XFILLER_16_92 VGND VGND VPWR VPWR sky130_fd_sc_hd__decap_3
XFILLER_8_144 VGND VGND VPWR VPWR sky130_fd_sc_hd__decap_3
XANTENNA_input6_A sel2[2] VGND VGND VPWR VPWR sky130_fd_sc_hd__diode_2
X_270_ _268_/Y _266_/A _269_/Y VGND VGND VPWR VPWR _462_/D sky130_fd_sc_hd__o21ai_1
X_468_ _471_/CLK _468_/D _349_/S VGND VGND VPWR VPWR _468_/Q sky130_fd_sc_hd__dfrtn_1
X_399_ _418_/X _357_/Y _431_/Q VGND VGND VPWR VPWR _399_/X sky130_fd_sc_hd__mux2_1
XFILLER_9_29 VGND VGND VPWR VPWR sky130_fd_sc_hd__decap_12
X_322_ _409_/X _451_/Q _436_/Q VGND VGND VPWR VPWR _323_/A sky130_fd_sc_hd__mux2_1
XFILLER_13_82 VGND VGND VPWR VPWR sky130_fd_sc_hd__decap_8
X_253_ _396_/S _253_/B _414_/S VGND VGND VPWR VPWR _260_/A sky130_fd_sc_hd__nand3_1
X_236_ _386_/X _220_/Y _235_/Y VGND VGND VPWR VPWR _469_/D sky130_fd_sc_hd__a21bo_1
X_305_ _454_/Q _305_/B VGND VGND VPWR VPWR _305_/X sky130_fd_sc_hd__and2b_1
XANTENNA__440__SET_B _349_/S VGND VGND VPWR VPWR sky130_fd_sc_hd__diode_2
Xclkbuf_1_1_0_pll_clk90 clkbuf_0_pll_clk90/X VGND VGND VPWR VPWR _419_/A1 sky130_fd_sc_hd__clkbuf_2
XFILLER_10_50 VGND VGND VPWR VPWR sky130_fd_sc_hd__decap_3
XFILLER_3_201 VGND VGND VPWR VPWR sky130_fd_sc_hd__fill_1
XFILLER_19_92 VGND VGND VPWR VPWR sky130_fd_sc_hd__decap_12
X_219_ _473_/Q VGND VGND VPWR VPWR _261_/B sky130_fd_sc_hd__inv_2
XANTENNA_clkbuf_0_pll_clk_A pll_clk VGND VGND VPWR VPWR sky130_fd_sc_hd__diode_2
XFILLER_15_160 VGND VGND VPWR VPWR sky130_fd_sc_hd__fill_1
XTAP_119 VGND VPWR sky130_fd_sc_hd__tapvpwrvgnd_1
XPHY_2 VGND VGND VPWR VPWR sky130_fd_sc_hd__decap_3
XANTENNA__449__RESET_B _349_/S VGND VGND VPWR VPWR sky130_fd_sc_hd__diode_2
XTAP_108 VGND VPWR sky130_fd_sc_hd__tapvpwrvgnd_1
XFILLER_12_196 VGND VGND VPWR VPWR sky130_fd_sc_hd__fill_1
XFILLER_12_130 VGND VGND VPWR VPWR sky130_fd_sc_hd__decap_12
XFILLER_8_112 VGND VGND VPWR VPWR sky130_fd_sc_hd__decap_4
X_398_ _397_/X _443_/Q _473_/Q VGND VGND VPWR VPWR _398_/X sky130_fd_sc_hd__mux2_1
X_467_ _467_/CLK _467_/D _349_/S VGND VGND VPWR VPWR _467_/Q sky130_fd_sc_hd__dfstp_1
XANTENNA__464__RESET_B _349_/S VGND VGND VPWR VPWR sky130_fd_sc_hd__diode_2
XFILLER_13_50 VGND VGND VPWR VPWR sky130_fd_sc_hd__fill_2
X_252_ _464_/Q _463_/Q _462_/Q VGND VGND VPWR VPWR _414_/S sky130_fd_sc_hd__nor3b_2
X_321_ _452_/Q _321_/B VGND VGND VPWR VPWR _452_/D sky130_fd_sc_hd__xor2_1
Xclkbuf_1_0_0_pll_clk90 clkbuf_0_pll_clk90/X VGND VGND VPWR VPWR _471_/CLK sky130_fd_sc_hd__clkbuf_2
XANTENNA__463__SET_B _349_/S VGND VGND VPWR VPWR sky130_fd_sc_hd__diode_2
X_235_ _235_/A _260_/C _469_/Q VGND VGND VPWR VPWR _235_/Y sky130_fd_sc_hd__nand3_1
XFILLER_1_75 VGND VGND VPWR VPWR sky130_fd_sc_hd__fill_1
XFILLER_10_62 VGND VGND VPWR VPWR sky130_fd_sc_hd__decap_3
XFILLER_19_82 VGND VGND VPWR VPWR sky130_fd_sc_hd__decap_8
X_218_ _443_/Q _444_/Q _442_/Q VGND VGND VPWR VPWR _250_/A sky130_fd_sc_hd__o21ai_1
Xclkbuf_1_1_0_ext_clk clkbuf_0_ext_clk/X VGND VGND VPWR VPWR _418_/A0 sky130_fd_sc_hd__clkbuf_2
XTAP_109 VGND VPWR sky130_fd_sc_hd__tapvpwrvgnd_1
XFILLER_15_183 VGND VGND VPWR VPWR sky130_fd_sc_hd__decap_12
XPHY_3 VGND VGND VPWR VPWR sky130_fd_sc_hd__decap_3
XFILLER_12_142 VGND VGND VPWR VPWR sky130_fd_sc_hd__fill_1
Xclkbuf_1_0_0_pll_clk clkbuf_0_pll_clk/X VGND VGND VPWR VPWR _459_/CLK sky130_fd_sc_hd__clkbuf_2
XFILLER_8_135 VGND VGND VPWR VPWR sky130_fd_sc_hd__decap_8
XFILLER_5_105 VGND VGND VPWR VPWR sky130_fd_sc_hd__fill_1
XFILLER_17_201 VGND VGND VPWR VPWR sky130_fd_sc_hd__fill_1
X_466_ _471_/CLK _466_/D _349_/S VGND VGND VPWR VPWR _466_/Q sky130_fd_sc_hd__dfrtn_1
X_397_ _375_/Y _443_/Q _397_/S VGND VGND VPWR VPWR _397_/X sky130_fd_sc_hd__mux2_1
X_245__1 _471_/CLK VGND VGND VPWR VPWR _467_/CLK sky130_fd_sc_hd__inv_2
XANTENNA__433__RESET_B _349_/S VGND VGND VPWR VPWR sky130_fd_sc_hd__diode_2
X_251_ _465_/Q VGND VGND VPWR VPWR _253_/B sky130_fd_sc_hd__inv_2
X_320_ _436_/Q _451_/Q _450_/Q VGND VGND VPWR VPWR _321_/B sky130_fd_sc_hd__nor3_1
X_449_ _417_/A1 _449_/D _349_/S VGND VGND VPWR VPWR _449_/Q sky130_fd_sc_hd__dfrtp_4
X_234_ _398_/X _220_/Y _233_/Y VGND VGND VPWR VPWR _470_/D sky130_fd_sc_hd__a21bo_1
X_303_ _456_/Q _298_/Y _299_/Y _309_/B VGND VGND VPWR VPWR _456_/D sky130_fd_sc_hd__o2bb2ai_1
XFILLER_6_200 VGND VGND VPWR VPWR sky130_fd_sc_hd__fill_2
X_217_ _214_/Y _215_/X _226_/C VGND VGND VPWR VPWR _217_/Y sky130_fd_sc_hd__o21ai_1
XFILLER_18_170 VGND VGND VPWR VPWR sky130_fd_sc_hd__fill_1
XFILLER_16_118 VGND VGND VPWR VPWR sky130_fd_sc_hd__decap_3
XFILLER_15_195 VGND VGND VPWR VPWR sky130_fd_sc_hd__fill_2
XPHY_4 VGND VGND VPWR VPWR sky130_fd_sc_hd__decap_3
XFILLER_7_53 VGND VGND VPWR VPWR sky130_fd_sc_hd__fill_1
XFILLER_16_40 VGND VGND VPWR VPWR sky130_fd_sc_hd__decap_8
XFILLER_7_180 VGND VGND VPWR VPWR sky130_fd_sc_hd__fill_2
X_396_ _220_/Y _473_/Q _396_/S VGND VGND VPWR VPWR _396_/X sky130_fd_sc_hd__mux2_1
X_465_ _465_/CLK _465_/D _349_/S VGND VGND VPWR VPWR _465_/Q sky130_fd_sc_hd__dfstp_1
XANTENNA__473__RESET_B _349_/S VGND VGND VPWR VPWR sky130_fd_sc_hd__diode_2
XFILLER_4_32 VGND VGND VPWR VPWR sky130_fd_sc_hd__fill_1
X_250_ _250_/A _250_/B VGND VGND VPWR VPWR _396_/S sky130_fd_sc_hd__nor2_1
XANTENNA_input4_A sel2[0] VGND VGND VPWR VPWR sky130_fd_sc_hd__diode_2
X_379_ _475_/Q _474_/Q VGND VGND VPWR VPWR _379_/Y sky130_fd_sc_hd__xnor2_1
X_448_ _459_/CLK _448_/D _349_/S VGND VGND VPWR VPWR _448_/Q sky130_fd_sc_hd__dfrtn_1
X_233_ _235_/A _260_/C _470_/Q VGND VGND VPWR VPWR _233_/Y sky130_fd_sc_hd__nand3_1
X_302_ _302_/A _302_/B VGND VGND VPWR VPWR _309_/B sky130_fd_sc_hd__nand2_1
XFILLER_19_116 VGND VGND VPWR VPWR sky130_fd_sc_hd__fill_1
XFILLER_19_105 VGND VGND VPWR VPWR sky130_fd_sc_hd__decap_4
XFILLER_19_40 VGND VGND VPWR VPWR sky130_fd_sc_hd__decap_12
XFILLER_18_3 VGND VGND VPWR VPWR sky130_fd_sc_hd__decap_8
X_216_ _443_/Q _444_/Q _442_/Q VGND VGND VPWR VPWR _226_/C sky130_fd_sc_hd__o21a_1
XPHY_5 VGND VGND VPWR VPWR sky130_fd_sc_hd__decap_3
XFILLER_7_65 VGND VGND VPWR VPWR sky130_fd_sc_hd__decap_3
XFILLER_12_144 VGND VGND VPWR VPWR sky130_fd_sc_hd__decap_4
X_308__5 _459_/CLK VGND VGND VPWR VPWR _453_/CLK sky130_fd_sc_hd__inv_2
X_464_ _471_/CLK _464_/D _349_/S VGND VGND VPWR VPWR _464_/Q sky130_fd_sc_hd__dfrtn_1
X_395_ _394_/X _444_/Q _473_/Q VGND VGND VPWR VPWR _395_/X sky130_fd_sc_hd__mux2_1
XFILLER_4_11 VGND VGND VPWR VPWR sky130_fd_sc_hd__fill_2
XFILLER_4_66 VGND VGND VPWR VPWR sky130_fd_sc_hd__fill_2
XFILLER_13_53 VGND VGND VPWR VPWR sky130_fd_sc_hd__fill_1
XANTENNA__442__RESET_B _349_/S VGND VGND VPWR VPWR sky130_fd_sc_hd__diode_2
X_378_ _474_/Q VGND VGND VPWR VPWR _378_/Y sky130_fd_sc_hd__clkinv_2
XFILLER_1_121 VGND VGND VPWR VPWR sky130_fd_sc_hd__decap_3
X_447_ _447_/CLK _447_/D _349_/S VGND VGND VPWR VPWR _447_/Q sky130_fd_sc_hd__dfstp_1
X_232_ _395_/X _220_/Y _231_/Y VGND VGND VPWR VPWR _471_/D sky130_fd_sc_hd__a21bo_1
XFILLER_1_23 VGND VGND VPWR VPWR sky130_fd_sc_hd__fill_1
X_301_ _455_/Q VGND VGND VPWR VPWR _302_/B sky130_fd_sc_hd__inv_2
XFILLER_19_128 VGND VGND VPWR VPWR sky130_fd_sc_hd__fill_2
X_215_ _425_/Q _444_/Q VGND VGND VPWR VPWR _215_/X sky130_fd_sc_hd__and2_1
XANTENNA__429__SET_B _349_/S VGND VGND VPWR VPWR sky130_fd_sc_hd__diode_2
XFILLER_15_131 VGND VGND VPWR VPWR sky130_fd_sc_hd__decap_3
XPHY_6 VGND VGND VPWR VPWR sky130_fd_sc_hd__decap_3
XFILLER_8_116 VGND VGND VPWR VPWR sky130_fd_sc_hd__fill_1
X_394_ _377_/X _444_/Q _397_/S VGND VGND VPWR VPWR _394_/X sky130_fd_sc_hd__mux2_1
X_463_ _463_/CLK _463_/D _349_/S VGND VGND VPWR VPWR _463_/Q sky130_fd_sc_hd__dfstp_1
XFILLER_4_196 VGND VGND VPWR VPWR sky130_fd_sc_hd__fill_1
X_377_ _471_/Q _377_/B VGND VGND VPWR VPWR _377_/X sky130_fd_sc_hd__xor2_1
XFILLER_13_98 VGND VGND VPWR VPWR sky130_fd_sc_hd__decap_6
XFILLER_9_200 VGND VGND VPWR VPWR sky130_fd_sc_hd__fill_2
X_446_ _459_/CLK _446_/D _349_/S VGND VGND VPWR VPWR _446_/Q sky130_fd_sc_hd__dfrtn_1
XFILLER_8_3 VGND VGND VPWR VPWR sky130_fd_sc_hd__decap_3
Xclkbuf_0_ext_clk ext_clk VGND VGND VPWR VPWR clkbuf_0_ext_clk/X sky130_fd_sc_hd__clkbuf_16
X_231_ _235_/A _260_/C _471_/Q VGND VGND VPWR VPWR _231_/Y sky130_fd_sc_hd__nand3_1
X_300_ _456_/Q VGND VGND VPWR VPWR _302_/A sky130_fd_sc_hd__inv_2
X_429_ _429_/CLK _429_/D _349_/S VGND VGND VPWR VPWR _429_/Q sky130_fd_sc_hd__dfstp_1
XFILLER_1_79 VGND VGND VPWR VPWR sky130_fd_sc_hd__fill_1
XFILLER_19_118 VGND VGND VPWR VPWR sky130_fd_sc_hd__fill_1
XFILLER_19_53 VGND VGND VPWR VPWR sky130_fd_sc_hd__decap_12
XFILLER_10_88 VGND VGND VPWR VPWR sky130_fd_sc_hd__decap_3
XFILLER_10_22 VGND VGND VPWR VPWR sky130_fd_sc_hd__decap_3
Xinput1 ext_clk_sel VGND VGND VPWR VPWR _380_/A sky130_fd_sc_hd__clkbuf_1
XTAP_90 VGND VPWR sky130_fd_sc_hd__tapvpwrvgnd_1
X_214_ _425_/Q _444_/Q VGND VGND VPWR VPWR _214_/Y sky130_fd_sc_hd__nor2_1
XPHY_7 VGND VGND VPWR VPWR sky130_fd_sc_hd__decap_3
XANTENNA__436__RESET_B _349_/S VGND VGND VPWR VPWR sky130_fd_sc_hd__diode_2
XFILLER_7_34 VGND VGND VPWR VPWR sky130_fd_sc_hd__fill_1
XFILLER_16_32 VGND VGND VPWR VPWR sky130_fd_sc_hd__fill_1
XFILLER_12_168 VGND VGND VPWR VPWR sky130_fd_sc_hd__fill_1
XFILLER_12_124 VGND VGND VPWR VPWR sky130_fd_sc_hd__fill_1
XFILLER_7_183 VGND VGND VPWR VPWR sky130_fd_sc_hd__decap_12
X_462_ _471_/CLK _462_/D _349_/S VGND VGND VPWR VPWR _462_/Q sky130_fd_sc_hd__dfrtn_1
X_393_ _443_/Q _378_/Y _416_/S VGND VGND VPWR VPWR _393_/X sky130_fd_sc_hd__mux2_1
XANTENNA__451__RESET_B _349_/S VGND VGND VPWR VPWR sky130_fd_sc_hd__diode_2
XFILLER_13_77 VGND VGND VPWR VPWR sky130_fd_sc_hd__fill_1
XFILLER_1_101 VGND VGND VPWR VPWR sky130_fd_sc_hd__decap_3
X_376_ _470_/Q _469_/Q VGND VGND VPWR VPWR _377_/B sky130_fd_sc_hd__nor2_1
X_445_ _417_/A1 _445_/D _349_/S VGND VGND VPWR VPWR _445_/Q sky130_fd_sc_hd__dfstp_1
XANTENNA_input2_A ext_reset VGND VGND VPWR VPWR sky130_fd_sc_hd__diode_2
X_230_ _230_/A _260_/C _230_/C VGND VGND VPWR VPWR _472_/D sky130_fd_sc_hd__nand3_1
X_428_ _428_/CLK _429_/Q _349_/S VGND VGND VPWR VPWR _428_/Q sky130_fd_sc_hd__dfstp_1
X_359_ _472_/Q _465_/Q VGND VGND VPWR VPWR _359_/Y sky130_fd_sc_hd__xnor2_1
Xinput2 ext_reset VGND VGND VPWR VPWR _381_/A sky130_fd_sc_hd__clkbuf_1
XTAP_80 VGND VPWR sky130_fd_sc_hd__tapvpwrvgnd_1
XTAP_91 VGND VPWR sky130_fd_sc_hd__tapvpwrvgnd_1
X_213_ _213_/A _213_/B _423_/Q VGND VGND VPWR VPWR _213_/Y sky130_fd_sc_hd__nand3_1
XFILLER_18_196 VGND VGND VPWR VPWR sky130_fd_sc_hd__fill_1
XANTENNA__458__SET_B _349_/S VGND VGND VPWR VPWR sky130_fd_sc_hd__diode_2
XFILLER_16_3 VGND VGND VPWR VPWR sky130_fd_sc_hd__fill_1
XPHY_8 VGND VGND VPWR VPWR sky130_fd_sc_hd__decap_3
XFILLER_7_57 VGND VGND VPWR VPWR sky130_fd_sc_hd__decap_8
XFILLER_16_88 VGND VGND VPWR VPWR sky130_fd_sc_hd__decap_3
XFILLER_16_66 VGND VGND VPWR VPWR sky130_fd_sc_hd__fill_2
XFILLER_8_118 VGND VGND VPWR VPWR sky130_fd_sc_hd__decap_3
XANTENNA__476__RESET_B _349_/S VGND VGND VPWR VPWR sky130_fd_sc_hd__diode_2
XFILLER_7_195 VGND VGND VPWR VPWR sky130_fd_sc_hd__fill_2
X_461_ _419_/A1 _461_/D _349_/S VGND VGND VPWR VPWR _461_/Q sky130_fd_sc_hd__dfstp_1
X_392_ _391_/X _436_/Q _449_/Q VGND VGND VPWR VPWR _392_/X sky130_fd_sc_hd__mux2_1
XFILLER_4_14 VGND VGND VPWR VPWR sky130_fd_sc_hd__decap_12
X_444_ _360_/Y _444_/D _349_/S VGND VGND VPWR VPWR _444_/Q sky130_fd_sc_hd__dfrtp_4
X_375_ _470_/Q _469_/Q VGND VGND VPWR VPWR _375_/Y sky130_fd_sc_hd__xnor2_1
X_427_ _427_/CLK _428_/Q _349_/S VGND VGND VPWR VPWR _427_/Q sky130_fd_sc_hd__dfstp_1