* NGSPICE file created from caravan.ext - technology: sky130A

* Black-box entry subcircuit for gpio_control_block abstract view
.subckt gpio_control_block gpio_defaults[0] gpio_defaults[10] gpio_defaults[11] gpio_defaults[12]
+ gpio_defaults[1] gpio_defaults[2] gpio_defaults[3] gpio_defaults[4] gpio_defaults[5]
+ gpio_defaults[6] gpio_defaults[7] gpio_defaults[8] gpio_defaults[9] mgmt_gpio_in
+ mgmt_gpio_oeb mgmt_gpio_out one pad_gpio_ana_en pad_gpio_ana_pol pad_gpio_ana_sel
+ pad_gpio_dm[0] pad_gpio_dm[1] pad_gpio_dm[2] pad_gpio_holdover pad_gpio_ib_mode_sel
+ pad_gpio_in pad_gpio_inenb pad_gpio_out pad_gpio_outenb pad_gpio_slow_sel pad_gpio_vtrip_sel
+ resetn resetn_out serial_clock serial_clock_out serial_data_in serial_data_out serial_load
+ serial_load_out user_gpio_in user_gpio_oeb user_gpio_out vccd vccd1 vssd vssd1 zero
.ends

* Black-box entry subcircuit for digital_pll abstract view
.subckt digital_pll VGND VPWR clockp[0] clockp[1] dco div[0] div[1] div[2] div[3]
+ div[4] enable ext_trim[0] ext_trim[10] ext_trim[11] ext_trim[12] ext_trim[13] ext_trim[14]
+ ext_trim[15] ext_trim[16] ext_trim[17] ext_trim[18] ext_trim[19] ext_trim[1] ext_trim[20]
+ ext_trim[21] ext_trim[22] ext_trim[23] ext_trim[24] ext_trim[25] ext_trim[2] ext_trim[3]
+ ext_trim[4] ext_trim[5] ext_trim[6] ext_trim[7] ext_trim[8] ext_trim[9] osc resetb
.ends

* Black-box entry subcircuit for chip_io_alt abstract view
.subckt chip_io_alt clock clock_core por flash_clk flash_csb flash_io0 flash_io0_di_core
+ flash_io0_do_core flash_io0_ieb_core flash_io0_oeb_core flash_io1 flash_io1_di_core
+ flash_io1_do_core flash_io1_ieb_core flash_io1_oeb_core gpio gpio_in_core gpio_inenb_core
+ gpio_mode0_core gpio_mode1_core gpio_out_core gpio_outenb_core vccd_pad vdda_pad
+ vddio_pad vddio_pad2 vssa_pad vssd_pad vssio_pad vssio_pad2 mprj_io[0] mprj_io_analog_en[0]
+ mprj_io_analog_pol[0] mprj_io_analog_sel[0] mprj_io_dm[0] mprj_io_dm[1] mprj_io_dm[2]
+ mprj_io_holdover[0] mprj_io_ib_mode_sel[0] mprj_io_inp_dis[0] mprj_io_oeb[0] mprj_io_out[0]
+ mprj_io_slow_sel[0] mprj_io_vtrip_sel[0] mprj_io_in[0] mprj_io_in_3v3[0] mprj_gpio_analog[3]
+ mprj_gpio_noesd[3] mprj_io[10] mprj_io_analog_en[10] mprj_io_analog_pol[10] mprj_io_analog_sel[10]
+ mprj_io_dm[30] mprj_io_dm[31] mprj_io_dm[32] mprj_io_holdover[10] mprj_io_ib_mode_sel[10]
+ mprj_io_inp_dis[10] mprj_io_oeb[10] mprj_io_out[10] mprj_io_slow_sel[10] mprj_io_vtrip_sel[10]
+ mprj_io_in[10] mprj_io_in_3v3[10] mprj_gpio_analog[4] mprj_gpio_noesd[4] mprj_io[11]
+ mprj_io_analog_en[11] mprj_io_analog_pol[11] mprj_io_analog_sel[11] mprj_io_dm[33]
+ mprj_io_dm[34] mprj_io_dm[35] mprj_io_holdover[11] mprj_io_ib_mode_sel[11] mprj_io_inp_dis[11]
+ mprj_io_oeb[11] mprj_io_out[11] mprj_io_slow_sel[11] mprj_io_vtrip_sel[11] mprj_io_in[11]
+ mprj_io_in_3v3[11] mprj_gpio_analog[5] mprj_gpio_noesd[5] mprj_io[12] mprj_io_analog_en[12]
+ mprj_io_analog_pol[12] mprj_io_analog_sel[12] mprj_io_dm[36] mprj_io_dm[37] mprj_io_dm[38]
+ mprj_io_holdover[12] mprj_io_ib_mode_sel[12] mprj_io_inp_dis[12] mprj_io_oeb[12]
+ mprj_io_out[12] mprj_io_slow_sel[12] mprj_io_vtrip_sel[12] mprj_io_in[12] mprj_io_in_3v3[12]
+ mprj_gpio_analog[6] mprj_gpio_noesd[6] mprj_io[13] mprj_io_analog_en[13] mprj_io_analog_pol[13]
+ mprj_io_analog_sel[13] mprj_io_dm[39] mprj_io_dm[40] mprj_io_dm[41] mprj_io_holdover[13]
+ mprj_io_ib_mode_sel[13] mprj_io_inp_dis[13] mprj_io_oeb[13] mprj_io_out[13] mprj_io_slow_sel[13]
+ mprj_io_vtrip_sel[13] mprj_io_in[13] mprj_io_in_3v3[13] mprj_io[1] mprj_io_analog_en[1]
+ mprj_io_analog_pol[1] mprj_io_analog_sel[1] mprj_io_dm[3] mprj_io_dm[4] mprj_io_dm[5]
+ mprj_io_holdover[1] mprj_io_ib_mode_sel[1] mprj_io_inp_dis[1] mprj_io_oeb[1] mprj_io_out[1]
+ mprj_io_slow_sel[1] mprj_io_vtrip_sel[1] mprj_io_in[1] mprj_io_in_3v3[1] mprj_io[2]
+ mprj_io_analog_en[2] mprj_io_analog_pol[2] mprj_io_analog_sel[2] mprj_io_dm[6] mprj_io_dm[7]
+ mprj_io_dm[8] mprj_io_holdover[2] mprj_io_ib_mode_sel[2] mprj_io_inp_dis[2] mprj_io_oeb[2]
+ mprj_io_out[2] mprj_io_slow_sel[2] mprj_io_vtrip_sel[2] mprj_io_in[2] mprj_io_in_3v3[2]
+ mprj_io[3] mprj_io_analog_en[3] mprj_io_analog_pol[3] mprj_io_analog_sel[3] mprj_io_dm[10]
+ mprj_io_dm[11] mprj_io_dm[9] mprj_io_holdover[3] mprj_io_ib_mode_sel[3] mprj_io_inp_dis[3]
+ mprj_io_oeb[3] mprj_io_out[3] mprj_io_slow_sel[3] mprj_io_vtrip_sel[3] mprj_io_in[3]
+ mprj_io_in_3v3[3] mprj_io[4] mprj_io_analog_en[4] mprj_io_analog_pol[4] mprj_io_analog_sel[4]
+ mprj_io_dm[12] mprj_io_dm[13] mprj_io_dm[14] mprj_io_holdover[4] mprj_io_ib_mode_sel[4]
+ mprj_io_inp_dis[4] mprj_io_oeb[4] mprj_io_out[4] mprj_io_slow_sel[4] mprj_io_vtrip_sel[4]
+ mprj_io_in[4] mprj_io_in_3v3[4] mprj_io[5] mprj_io_analog_en[5] mprj_io_analog_pol[5]
+ mprj_io_analog_sel[5] mprj_io_dm[15] mprj_io_dm[16] mprj_io_dm[17] mprj_io_holdover[5]
+ mprj_io_ib_mode_sel[5] mprj_io_inp_dis[5] mprj_io_oeb[5] mprj_io_out[5] mprj_io_slow_sel[5]
+ mprj_io_vtrip_sel[5] mprj_io_in[5] mprj_io_in_3v3[5] mprj_io[6] mprj_io_analog_en[6]
+ mprj_io_analog_pol[6] mprj_io_analog_sel[6] mprj_io_dm[18] mprj_io_dm[19] mprj_io_dm[20]
+ mprj_io_holdover[6] mprj_io_ib_mode_sel[6] mprj_io_inp_dis[6] mprj_io_oeb[6] mprj_io_out[6]
+ mprj_io_slow_sel[6] mprj_io_vtrip_sel[6] mprj_io_in[6] mprj_io_in_3v3[6] mprj_gpio_analog[0]
+ mprj_gpio_noesd[0] mprj_io[7] mprj_io_analog_en[7] mprj_io_analog_pol[7] mprj_io_analog_sel[7]
+ mprj_io_dm[21] mprj_io_dm[22] mprj_io_dm[23] mprj_io_holdover[7] mprj_io_ib_mode_sel[7]
+ mprj_io_inp_dis[7] mprj_io_oeb[7] mprj_io_out[7] mprj_io_slow_sel[7] mprj_io_vtrip_sel[7]
+ mprj_io_in[7] mprj_io_in_3v3[7] mprj_gpio_analog[1] mprj_gpio_noesd[1] mprj_io[8]
+ mprj_io_analog_en[8] mprj_io_analog_pol[8] mprj_io_analog_sel[8] mprj_io_dm[24]
+ mprj_io_dm[25] mprj_io_dm[26] mprj_io_holdover[8] mprj_io_ib_mode_sel[8] mprj_io_inp_dis[8]
+ mprj_io_oeb[8] mprj_io_out[8] mprj_io_slow_sel[8] mprj_io_vtrip_sel[8] mprj_io_in[8]
+ mprj_io_in_3v3[8] mprj_gpio_analog[2] mprj_gpio_noesd[2] mprj_io[9] mprj_io_analog_en[9]
+ mprj_io_analog_pol[9] mprj_io_analog_sel[9] mprj_io_dm[27] mprj_io_dm[28] mprj_io_dm[29]
+ mprj_io_holdover[9] mprj_io_ib_mode_sel[9] mprj_io_inp_dis[9] mprj_io_oeb[9] mprj_io_out[9]
+ mprj_io_slow_sel[9] mprj_io_vtrip_sel[9] mprj_io_in[9] mprj_io_in_3v3[9] mprj_gpio_analog[7]
+ mprj_gpio_noesd[7] mprj_io[25] mprj_io_analog_en[14] mprj_io_analog_pol[14] mprj_io_analog_sel[14]
+ mprj_io_dm[42] mprj_io_dm[43] mprj_io_dm[44] mprj_io_holdover[14] mprj_io_ib_mode_sel[14]
+ mprj_io_inp_dis[14] mprj_io_oeb[14] mprj_io_out[14] mprj_io_slow_sel[14] mprj_io_vtrip_sel[14]
+ mprj_io_in[14] mprj_io_in_3v3[14] mprj_gpio_analog[17] mprj_gpio_noesd[17] mprj_io[35]
+ mprj_io_analog_en[24] mprj_io_analog_pol[24] mprj_io_analog_sel[24] mprj_io_dm[72]
+ mprj_io_dm[73] mprj_io_dm[74] mprj_io_holdover[24] mprj_io_ib_mode_sel[24] mprj_io_inp_dis[24]
+ mprj_io_oeb[24] mprj_io_out[24] mprj_io_slow_sel[24] mprj_io_vtrip_sel[24] mprj_io_in[24]
+ mprj_io_in_3v3[24] mprj_io[36] mprj_io_analog_en[25] mprj_io_analog_pol[25] mprj_io_analog_sel[25]
+ mprj_io_dm[75] mprj_io_dm[76] mprj_io_dm[77] mprj_io_holdover[25] mprj_io_ib_mode_sel[25]
+ mprj_io_inp_dis[25] mprj_io_oeb[25] mprj_io_out[25] mprj_io_slow_sel[25] mprj_io_vtrip_sel[25]
+ mprj_io_in[25] mprj_io_in_3v3[25] mprj_io[37] mprj_io_analog_en[26] mprj_io_analog_pol[26]
+ mprj_io_analog_sel[26] mprj_io_dm[78] mprj_io_dm[79] mprj_io_dm[80] mprj_io_holdover[26]
+ mprj_io_ib_mode_sel[26] mprj_io_inp_dis[26] mprj_io_oeb[26] mprj_io_out[26] mprj_io_slow_sel[26]
+ mprj_io_vtrip_sel[26] mprj_io_in[26] mprj_io_in_3v3[26] mprj_gpio_analog[8] mprj_gpio_noesd[8]
+ mprj_io[26] mprj_io_analog_en[15] mprj_io_analog_pol[15] mprj_io_analog_sel[15]
+ mprj_io_dm[45] mprj_io_dm[46] mprj_io_dm[47] mprj_io_holdover[15] mprj_io_ib_mode_sel[15]
+ mprj_io_inp_dis[15] mprj_io_oeb[15] mprj_io_out[15] mprj_io_slow_sel[15] mprj_io_vtrip_sel[15]
+ mprj_io_in[15] mprj_io_in_3v3[15] mprj_gpio_analog[9] mprj_gpio_noesd[9] mprj_io[27]
+ mprj_io_analog_en[16] mprj_io_analog_pol[16] mprj_io_analog_sel[16] mprj_io_dm[48]
+ mprj_io_dm[49] mprj_io_dm[50] mprj_io_holdover[16] mprj_io_ib_mode_sel[16] mprj_io_inp_dis[16]
+ mprj_io_oeb[16] mprj_io_out[16] mprj_io_slow_sel[16] mprj_io_vtrip_sel[16] mprj_io_in[16]
+ mprj_io_in_3v3[16] mprj_gpio_analog[10] mprj_gpio_noesd[10] mprj_io[28] mprj_io_analog_en[17]
+ mprj_io_analog_pol[17] mprj_io_analog_sel[17] mprj_io_dm[51] mprj_io_dm[52] mprj_io_dm[53]
+ mprj_io_holdover[17] mprj_io_ib_mode_sel[17] mprj_io_inp_dis[17] mprj_io_oeb[17]
+ mprj_io_out[17] mprj_io_slow_sel[17] mprj_io_vtrip_sel[17] mprj_io_in[17] mprj_io_in_3v3[17]
+ mprj_gpio_analog[11] mprj_gpio_noesd[11] mprj_io[29] mprj_io_analog_en[18] mprj_io_analog_pol[18]
+ mprj_io_analog_sel[18] mprj_io_dm[54] mprj_io_dm[55] mprj_io_dm[56] mprj_io_holdover[18]
+ mprj_io_ib_mode_sel[18] mprj_io_inp_dis[18] mprj_io_oeb[18] mprj_io_out[18] mprj_io_slow_sel[18]
+ mprj_io_vtrip_sel[18] mprj_io_in[18] mprj_io_in_3v3[18] mprj_gpio_analog[12] mprj_gpio_noesd[12]
+ mprj_io[30] mprj_io_analog_en[19] mprj_io_analog_pol[19] mprj_io_analog_sel[19]
+ mprj_io_dm[57] mprj_io_dm[58] mprj_io_dm[59] mprj_io_holdover[19] mprj_io_ib_mode_sel[19]
+ mprj_io_inp_dis[19] mprj_io_oeb[19] mprj_io_out[19] mprj_io_slow_sel[19] mprj_io_vtrip_sel[19]
+ mprj_io_in[19] mprj_io_in_3v3[19] mprj_gpio_analog[13] mprj_gpio_noesd[13] mprj_io[31]
+ mprj_io_analog_en[20] mprj_io_analog_pol[20] mprj_io_analog_sel[20] mprj_io_dm[60]
+ mprj_io_dm[61] mprj_io_dm[62] mprj_io_holdover[20] mprj_io_ib_mode_sel[20] mprj_io_inp_dis[20]
+ mprj_io_oeb[20] mprj_io_out[20] mprj_io_slow_sel[20] mprj_io_vtrip_sel[20] mprj_io_in[20]
+ mprj_io_in_3v3[20] mprj_gpio_analog[14] mprj_gpio_noesd[14] mprj_io[32] mprj_io_analog_en[21]
+ mprj_io_analog_pol[21] mprj_io_analog_sel[21] mprj_io_dm[63] mprj_io_dm[64] mprj_io_dm[65]
+ mprj_io_holdover[21] mprj_io_ib_mode_sel[21] mprj_io_inp_dis[21] mprj_io_oeb[21]
+ mprj_io_out[21] mprj_io_slow_sel[21] mprj_io_vtrip_sel[21] mprj_io_in[21] mprj_io_in_3v3[21]
+ mprj_gpio_analog[15] mprj_gpio_noesd[15] mprj_io[33] mprj_io_analog_en[22] mprj_io_analog_pol[22]
+ mprj_io_analog_sel[22] mprj_io_dm[66] mprj_io_dm[67] mprj_io_dm[68] mprj_io_holdover[22]
+ mprj_io_ib_mode_sel[22] mprj_io_inp_dis[22] mprj_io_oeb[22] mprj_io_out[22] mprj_io_slow_sel[22]
+ mprj_io_vtrip_sel[22] mprj_io_in[22] mprj_io_in_3v3[22] mprj_gpio_analog[16] mprj_gpio_noesd[16]
+ mprj_io[34] mprj_io_analog_en[23] mprj_io_analog_pol[23] mprj_io_analog_sel[23]
+ mprj_io_dm[69] mprj_io_dm[70] mprj_io_dm[71] mprj_io_holdover[23] mprj_io_ib_mode_sel[23]
+ mprj_io_inp_dis[23] mprj_io_oeb[23] mprj_io_out[23] mprj_io_slow_sel[23] mprj_io_vtrip_sel[23]
+ mprj_io_in[23] mprj_io_in_3v3[23] porb_h resetb resetb_core_h vdda vssa vssd mprj_analog[0]
+ mprj_io[15] mprj_analog[1] mprj_io[16] mprj_analog[2] mprj_io[17] mprj_analog[3]
+ mprj_io[14] mprj_analog[4] mprj_clamp_high[0] mprj_clamp_low[0] mprj_io[18] vccd1_pad
+ vdda1_pad vdda1_pad2 vssa1_pad vssa1_pad2 vccd1 vdda1 vssa1 vssd1 vssd1_pad mprj_analog[7]
+ mprj_io[21] mprj_analog[8] mprj_io[22] mprj_analog[9] mprj_io[23] mprj_analog[10]
+ mprj_io[24] mprj_analog[5] mprj_clamp_high[1] mprj_clamp_low[1] mprj_io[19] mprj_analog[6]
+ mprj_clamp_high[2] mprj_clamp_low[2] mprj_io[20] vccd2_pad vdda2_pad vssa2_pad vccd
+ vccd2 vdda2 vddio vssa2 vssd2 vssd2_pad vssio flash_csb_core flash_clk_ieb_core
+ flash_clk_oeb_core flash_clk_core flash_csb_oeb_core flash_csb_ieb_core
.ends

* Black-box entry subcircuit for gpio_defaults_block abstract view
.subckt gpio_defaults_block VGND VPWR gpio_defaults[0] gpio_defaults[10] gpio_defaults[11]
+ gpio_defaults[12] gpio_defaults[1] gpio_defaults[2] gpio_defaults[3] gpio_defaults[4]
+ gpio_defaults[5] gpio_defaults[6] gpio_defaults[7] gpio_defaults[8] gpio_defaults[9]
.ends

* Black-box entry subcircuit for mgmt_core_wrapper abstract view
.subckt mgmt_core_wrapper VGND VPWR core_clk core_rstn debug_in debug_mode debug_oeb
+ debug_out flash_clk flash_csb flash_io0_di flash_io0_do flash_io0_oeb flash_io1_di
+ flash_io1_do flash_io1_oeb flash_io2_di flash_io2_do flash_io2_oeb flash_io3_di
+ flash_io3_do flash_io3_oeb gpio_in_pad gpio_inenb_pad gpio_mode0_pad gpio_mode1_pad
+ gpio_out_pad gpio_outenb_pad hk_ack_i hk_dat_i[0] hk_dat_i[10] hk_dat_i[11] hk_dat_i[12]
+ hk_dat_i[13] hk_dat_i[14] hk_dat_i[15] hk_dat_i[16] hk_dat_i[17] hk_dat_i[18] hk_dat_i[19]
+ hk_dat_i[1] hk_dat_i[20] hk_dat_i[21] hk_dat_i[22] hk_dat_i[23] hk_dat_i[24] hk_dat_i[25]
+ hk_dat_i[26] hk_dat_i[27] hk_dat_i[28] hk_dat_i[29] hk_dat_i[2] hk_dat_i[30] hk_dat_i[31]
+ hk_dat_i[3] hk_dat_i[4] hk_dat_i[5] hk_dat_i[6] hk_dat_i[7] hk_dat_i[8] hk_dat_i[9]
+ hk_stb_o irq[0] irq[1] irq[2] irq[3] irq[4] irq[5] la_iena[0] la_iena[100] la_iena[101]
+ la_iena[102] la_iena[103] la_iena[104] la_iena[105] la_iena[106] la_iena[107] la_iena[108]
+ la_iena[109] la_iena[10] la_iena[110] la_iena[111] la_iena[112] la_iena[113] la_iena[114]
+ la_iena[115] la_iena[116] la_iena[117] la_iena[118] la_iena[119] la_iena[11] la_iena[120]
+ la_iena[121] la_iena[122] la_iena[123] la_iena[124] la_iena[125] la_iena[126] la_iena[127]
+ la_iena[12] la_iena[13] la_iena[14] la_iena[15] la_iena[16] la_iena[17] la_iena[18]
+ la_iena[19] la_iena[1] la_iena[20] la_iena[21] la_iena[22] la_iena[23] la_iena[24]
+ la_iena[25] la_iena[26] la_iena[27] la_iena[28] la_iena[29] la_iena[2] la_iena[30]
+ la_iena[31] la_iena[32] la_iena[33] la_iena[34] la_iena[35] la_iena[36] la_iena[37]
+ la_iena[38] la_iena[39] la_iena[3] la_iena[40] la_iena[41] la_iena[42] la_iena[43]
+ la_iena[44] la_iena[45] la_iena[46] la_iena[47] la_iena[48] la_iena[49] la_iena[4]
+ la_iena[50] la_iena[51] la_iena[52] la_iena[53] la_iena[54] la_iena[55] la_iena[56]
+ la_iena[57] la_iena[58] la_iena[59] la_iena[5] la_iena[60] la_iena[61] la_iena[62]
+ la_iena[63] la_iena[64] la_iena[65] la_iena[66] la_iena[67] la_iena[68] la_iena[69]
+ la_iena[6] la_iena[70] la_iena[71] la_iena[72] la_iena[73] la_iena[74] la_iena[75]
+ la_iena[76] la_iena[77] la_iena[78] la_iena[79] la_iena[7] la_iena[80] la_iena[81]
+ la_iena[82] la_iena[83] la_iena[84] la_iena[85] la_iena[86] la_iena[87] la_iena[88]
+ la_iena[89] la_iena[8] la_iena[90] la_iena[91] la_iena[92] la_iena[93] la_iena[94]
+ la_iena[95] la_iena[96] la_iena[97] la_iena[98] la_iena[99] la_iena[9] la_input[0]
+ la_input[100] la_input[101] la_input[102] la_input[103] la_input[104] la_input[105]
+ la_input[106] la_input[107] la_input[108] la_input[109] la_input[10] la_input[110]
+ la_input[111] la_input[112] la_input[113] la_input[114] la_input[115] la_input[116]
+ la_input[117] la_input[118] la_input[119] la_input[11] la_input[120] la_input[121]
+ la_input[122] la_input[123] la_input[124] la_input[125] la_input[126] la_input[127]
+ la_input[12] la_input[13] la_input[14] la_input[15] la_input[16] la_input[17] la_input[18]
+ la_input[19] la_input[1] la_input[20] la_input[21] la_input[22] la_input[23] la_input[24]
+ la_input[25] la_input[26] la_input[27] la_input[28] la_input[29] la_input[2] la_input[30]
+ la_input[31] la_input[32] la_input[33] la_input[34] la_input[35] la_input[36] la_input[37]
+ la_input[38] la_input[39] la_input[3] la_input[40] la_input[41] la_input[42] la_input[43]
+ la_input[44] la_input[45] la_input[46] la_input[47] la_input[48] la_input[49] la_input[4]
+ la_input[50] la_input[51] la_input[52] la_input[53] la_input[54] la_input[55] la_input[56]
+ la_input[57] la_input[58] la_input[59] la_input[5] la_input[60] la_input[61] la_input[62]
+ la_input[63] la_input[64] la_input[65] la_input[66] la_input[67] la_input[68] la_input[69]
+ la_input[6] la_input[70] la_input[71] la_input[72] la_input[73] la_input[74] la_input[75]
+ la_input[76] la_input[77] la_input[78] la_input[79] la_input[7] la_input[80] la_input[81]
+ la_input[82] la_input[83] la_input[84] la_input[85] la_input[86] la_input[87] la_input[88]
+ la_input[89] la_input[8] la_input[90] la_input[91] la_input[92] la_input[93] la_input[94]
+ la_input[95] la_input[96] la_input[97] la_input[98] la_input[99] la_input[9] la_oenb[0]
+ la_oenb[100] la_oenb[101] la_oenb[102] la_oenb[103] la_oenb[104] la_oenb[105] la_oenb[106]
+ la_oenb[107] la_oenb[108] la_oenb[109] la_oenb[10] la_oenb[110] la_oenb[111] la_oenb[112]
+ la_oenb[113] la_oenb[114] la_oenb[115] la_oenb[116] la_oenb[117] la_oenb[118] la_oenb[119]
+ la_oenb[11] la_oenb[120] la_oenb[121] la_oenb[122] la_oenb[123] la_oenb[124] la_oenb[125]
+ la_oenb[126] la_oenb[127] la_oenb[12] la_oenb[13] la_oenb[14] la_oenb[15] la_oenb[16]
+ la_oenb[17] la_oenb[18] la_oenb[19] la_oenb[1] la_oenb[20] la_oenb[21] la_oenb[22]
+ la_oenb[23] la_oenb[24] la_oenb[25] la_oenb[26] la_oenb[27] la_oenb[28] la_oenb[29]
+ la_oenb[2] la_oenb[30] la_oenb[31] la_oenb[32] la_oenb[33] la_oenb[34] la_oenb[35]
+ la_oenb[36] la_oenb[37] la_oenb[38] la_oenb[39] la_oenb[3] la_oenb[40] la_oenb[41]
+ la_oenb[42] la_oenb[43] la_oenb[44] la_oenb[45] la_oenb[46] la_oenb[47] la_oenb[48]
+ la_oenb[49] la_oenb[4] la_oenb[50] la_oenb[51] la_oenb[52] la_oenb[53] la_oenb[54]
+ la_oenb[55] la_oenb[56] la_oenb[57] la_oenb[58] la_oenb[59] la_oenb[5] la_oenb[60]
+ la_oenb[61] la_oenb[62] la_oenb[63] la_oenb[64] la_oenb[65] la_oenb[66] la_oenb[67]
+ la_oenb[68] la_oenb[69] la_oenb[6] la_oenb[70] la_oenb[71] la_oenb[72] la_oenb[73]
+ la_oenb[74] la_oenb[75] la_oenb[76] la_oenb[77] la_oenb[78] la_oenb[79] la_oenb[7]
+ la_oenb[80] la_oenb[81] la_oenb[82] la_oenb[83] la_oenb[84] la_oenb[85] la_oenb[86]
+ la_oenb[87] la_oenb[88] la_oenb[89] la_oenb[8] la_oenb[90] la_oenb[91] la_oenb[92]
+ la_oenb[93] la_oenb[94] la_oenb[95] la_oenb[96] la_oenb[97] la_oenb[98] la_oenb[99]
+ la_oenb[9] la_output[0] la_output[100] la_output[101] la_output[102] la_output[103]
+ la_output[104] la_output[105] la_output[106] la_output[107] la_output[108] la_output[109]
+ la_output[10] la_output[110] la_output[111] la_output[112] la_output[113] la_output[114]
+ la_output[115] la_output[116] la_output[117] la_output[118] la_output[119] la_output[11]
+ la_output[120] la_output[121] la_output[122] la_output[123] la_output[124] la_output[125]
+ la_output[126] la_output[127] la_output[12] la_output[13] la_output[14] la_output[15]
+ la_output[16] la_output[17] la_output[18] la_output[19] la_output[1] la_output[20]
+ la_output[21] la_output[22] la_output[23] la_output[24] la_output[25] la_output[26]
+ la_output[27] la_output[28] la_output[29] la_output[2] la_output[30] la_output[31]
+ la_output[32] la_output[33] la_output[34] la_output[35] la_output[36] la_output[37]
+ la_output[38] la_output[39] la_output[3] la_output[40] la_output[41] la_output[42]
+ la_output[43] la_output[44] la_output[45] la_output[46] la_output[47] la_output[48]
+ la_output[49] la_output[4] la_output[50] la_output[51] la_output[52] la_output[53]
+ la_output[54] la_output[55] la_output[56] la_output[57] la_output[58] la_output[59]
+ la_output[5] la_output[60] la_output[61] la_output[62] la_output[63] la_output[64]
+ la_output[65] la_output[66] la_output[67] la_output[68] la_output[69] la_output[6]
+ la_output[70] la_output[71] la_output[72] la_output[73] la_output[74] la_output[75]
+ la_output[76] la_output[77] la_output[78] la_output[79] la_output[7] la_output[80]
+ la_output[81] la_output[82] la_output[83] la_output[84] la_output[85] la_output[86]
+ la_output[87] la_output[88] la_output[89] la_output[8] la_output[90] la_output[91]
+ la_output[92] la_output[93] la_output[94] la_output[95] la_output[96] la_output[97]
+ la_output[98] la_output[99] la_output[9] mprj_ack_i mprj_adr_o[0] mprj_adr_o[10]
+ mprj_adr_o[11] mprj_adr_o[12] mprj_adr_o[13] mprj_adr_o[14] mprj_adr_o[15] mprj_adr_o[16]
+ mprj_adr_o[17] mprj_adr_o[18] mprj_adr_o[19] mprj_adr_o[1] mprj_adr_o[20] mprj_adr_o[21]
+ mprj_adr_o[22] mprj_adr_o[23] mprj_adr_o[24] mprj_adr_o[25] mprj_adr_o[26] mprj_adr_o[27]
+ mprj_adr_o[28] mprj_adr_o[29] mprj_adr_o[2] mprj_adr_o[30] mprj_adr_o[31] mprj_adr_o[3]
+ mprj_adr_o[4] mprj_adr_o[5] mprj_adr_o[6] mprj_adr_o[7] mprj_adr_o[8] mprj_adr_o[9]
+ mprj_cyc_o mprj_dat_i[0] mprj_dat_i[10] mprj_dat_i[11] mprj_dat_i[12] mprj_dat_i[13]
+ mprj_dat_i[14] mprj_dat_i[15] mprj_dat_i[16] mprj_dat_i[17] mprj_dat_i[18] mprj_dat_i[19]
+ mprj_dat_i[1] mprj_dat_i[20] mprj_dat_i[21] mprj_dat_i[22] mprj_dat_i[23] mprj_dat_i[24]
+ mprj_dat_i[25] mprj_dat_i[26] mprj_dat_i[27] mprj_dat_i[28] mprj_dat_i[29] mprj_dat_i[2]
+ mprj_dat_i[30] mprj_dat_i[31] mprj_dat_i[3] mprj_dat_i[4] mprj_dat_i[5] mprj_dat_i[6]
+ mprj_dat_i[7] mprj_dat_i[8] mprj_dat_i[9] mprj_dat_o[0] mprj_dat_o[10] mprj_dat_o[11]
+ mprj_dat_o[12] mprj_dat_o[13] mprj_dat_o[14] mprj_dat_o[15] mprj_dat_o[16] mprj_dat_o[17]
+ mprj_dat_o[18] mprj_dat_o[19] mprj_dat_o[1] mprj_dat_o[20] mprj_dat_o[21] mprj_dat_o[22]
+ mprj_dat_o[23] mprj_dat_o[24] mprj_dat_o[25] mprj_dat_o[26] mprj_dat_o[27] mprj_dat_o[28]
+ mprj_dat_o[29] mprj_dat_o[2] mprj_dat_o[30] mprj_dat_o[31] mprj_dat_o[3] mprj_dat_o[4]
+ mprj_dat_o[5] mprj_dat_o[6] mprj_dat_o[7] mprj_dat_o[8] mprj_dat_o[9] mprj_sel_o[0]
+ mprj_sel_o[1] mprj_sel_o[2] mprj_sel_o[3] mprj_stb_o mprj_wb_iena mprj_we_o qspi_enabled
+ ser_rx ser_tx spi_csb spi_enabled spi_sck spi_sdi spi_sdo spi_sdoenb sram_ro_addr[0]
+ sram_ro_addr[1] sram_ro_addr[2] sram_ro_addr[3] sram_ro_addr[4] sram_ro_addr[5]
+ sram_ro_addr[6] sram_ro_addr[7] sram_ro_clk sram_ro_csb sram_ro_data[0] sram_ro_data[10]
+ sram_ro_data[11] sram_ro_data[12] sram_ro_data[13] sram_ro_data[14] sram_ro_data[15]
+ sram_ro_data[16] sram_ro_data[17] sram_ro_data[18] sram_ro_data[19] sram_ro_data[1]
+ sram_ro_data[20] sram_ro_data[21] sram_ro_data[22] sram_ro_data[23] sram_ro_data[24]
+ sram_ro_data[25] sram_ro_data[26] sram_ro_data[27] sram_ro_data[28] sram_ro_data[29]
+ sram_ro_data[2] sram_ro_data[30] sram_ro_data[31] sram_ro_data[3] sram_ro_data[4]
+ sram_ro_data[5] sram_ro_data[6] sram_ro_data[7] sram_ro_data[8] sram_ro_data[9]
+ trap uart_enabled user_irq_ena[0] user_irq_ena[1] user_irq_ena[2]
.ends

* Black-box entry subcircuit for simple_por abstract view
.subckt simple_por vdd3v3 vdd1v8 vss porb_h por_l porb_l
.ends

* Black-box entry subcircuit for caravel_clocking abstract view
.subckt caravel_clocking VGND VPWR core_clk ext_clk ext_clk_sel ext_reset pll_clk
+ pll_clk90 resetb resetb_sync sel2[0] sel2[1] sel2[2] sel[0] sel[1] sel[2] user_clk
.ends

* Black-box entry subcircuit for user_id_programming abstract view
.subckt user_id_programming mask_rev[0] mask_rev[10] mask_rev[11] mask_rev[12] mask_rev[13]
+ mask_rev[14] mask_rev[15] mask_rev[16] mask_rev[17] mask_rev[18] mask_rev[19] mask_rev[1]
+ mask_rev[20] mask_rev[21] mask_rev[22] mask_rev[23] mask_rev[24] mask_rev[25] mask_rev[26]
+ mask_rev[27] mask_rev[28] mask_rev[29] mask_rev[2] mask_rev[30] mask_rev[31] mask_rev[3]
+ mask_rev[4] mask_rev[5] mask_rev[6] mask_rev[7] mask_rev[8] mask_rev[9] VPWR VGND
.ends

* Black-box entry subcircuit for mgmt_protect abstract view
.subckt mgmt_protect caravel_clk caravel_clk2 caravel_rstn la_data_in_core[0] la_data_in_core[100]
+ la_data_in_core[101] la_data_in_core[102] la_data_in_core[103] la_data_in_core[104]
+ la_data_in_core[105] la_data_in_core[106] la_data_in_core[107] la_data_in_core[108]
+ la_data_in_core[109] la_data_in_core[10] la_data_in_core[110] la_data_in_core[111]
+ la_data_in_core[112] la_data_in_core[113] la_data_in_core[114] la_data_in_core[115]
+ la_data_in_core[116] la_data_in_core[117] la_data_in_core[118] la_data_in_core[119]
+ la_data_in_core[11] la_data_in_core[120] la_data_in_core[121] la_data_in_core[122]
+ la_data_in_core[123] la_data_in_core[124] la_data_in_core[125] la_data_in_core[126]
+ la_data_in_core[127] la_data_in_core[12] la_data_in_core[13] la_data_in_core[14]
+ la_data_in_core[15] la_data_in_core[16] la_data_in_core[17] la_data_in_core[18]
+ la_data_in_core[19] la_data_in_core[1] la_data_in_core[20] la_data_in_core[21] la_data_in_core[22]
+ la_data_in_core[23] la_data_in_core[24] la_data_in_core[25] la_data_in_core[26]
+ la_data_in_core[27] la_data_in_core[28] la_data_in_core[29] la_data_in_core[2] la_data_in_core[30]
+ la_data_in_core[31] la_data_in_core[32] la_data_in_core[33] la_data_in_core[34]
+ la_data_in_core[35] la_data_in_core[36] la_data_in_core[37] la_data_in_core[38]
+ la_data_in_core[39] la_data_in_core[3] la_data_in_core[40] la_data_in_core[41] la_data_in_core[42]
+ la_data_in_core[43] la_data_in_core[44] la_data_in_core[45] la_data_in_core[46]
+ la_data_in_core[47] la_data_in_core[48] la_data_in_core[49] la_data_in_core[4] la_data_in_core[50]
+ la_data_in_core[51] la_data_in_core[52] la_data_in_core[53] la_data_in_core[54]
+ la_data_in_core[55] la_data_in_core[56] la_data_in_core[57] la_data_in_core[58]
+ la_data_in_core[59] la_data_in_core[5] la_data_in_core[60] la_data_in_core[61] la_data_in_core[62]
+ la_data_in_core[63] la_data_in_core[64] la_data_in_core[65] la_data_in_core[66]
+ la_data_in_core[67] la_data_in_core[68] la_data_in_core[69] la_data_in_core[6] la_data_in_core[70]
+ la_data_in_core[71] la_data_in_core[72] la_data_in_core[73] la_data_in_core[74]
+ la_data_in_core[75] la_data_in_core[76] la_data_in_core[77] la_data_in_core[78]
+ la_data_in_core[79] la_data_in_core[7] la_data_in_core[80] la_data_in_core[81] la_data_in_core[82]
+ la_data_in_core[83] la_data_in_core[84] la_data_in_core[85] la_data_in_core[86]
+ la_data_in_core[87] la_data_in_core[88] la_data_in_core[89] la_data_in_core[8] la_data_in_core[90]
+ la_data_in_core[91] la_data_in_core[92] la_data_in_core[93] la_data_in_core[94]
+ la_data_in_core[95] la_data_in_core[96] la_data_in_core[97] la_data_in_core[98]
+ la_data_in_core[99] la_data_in_core[9] la_data_in_mprj[0] la_data_in_mprj[100] la_data_in_mprj[101]
+ la_data_in_mprj[102] la_data_in_mprj[103] la_data_in_mprj[104] la_data_in_mprj[105]
+ la_data_in_mprj[106] la_data_in_mprj[107] la_data_in_mprj[108] la_data_in_mprj[109]
+ la_data_in_mprj[10] la_data_in_mprj[110] la_data_in_mprj[111] la_data_in_mprj[112]
+ la_data_in_mprj[113] la_data_in_mprj[114] la_data_in_mprj[115] la_data_in_mprj[116]
+ la_data_in_mprj[117] la_data_in_mprj[118] la_data_in_mprj[119] la_data_in_mprj[11]
+ la_data_in_mprj[120] la_data_in_mprj[121] la_data_in_mprj[122] la_data_in_mprj[123]
+ la_data_in_mprj[124] la_data_in_mprj[125] la_data_in_mprj[126] la_data_in_mprj[127]
+ la_data_in_mprj[12] la_data_in_mprj[13] la_data_in_mprj[14] la_data_in_mprj[15]
+ la_data_in_mprj[16] la_data_in_mprj[17] la_data_in_mprj[18] la_data_in_mprj[19]
+ la_data_in_mprj[1] la_data_in_mprj[20] la_data_in_mprj[21] la_data_in_mprj[22] la_data_in_mprj[23]
+ la_data_in_mprj[24] la_data_in_mprj[25] la_data_in_mprj[26] la_data_in_mprj[27]
+ la_data_in_mprj[28] la_data_in_mprj[29] la_data_in_mprj[2] la_data_in_mprj[30] la_data_in_mprj[31]
+ la_data_in_mprj[32] la_data_in_mprj[33] la_data_in_mprj[34] la_data_in_mprj[35]
+ la_data_in_mprj[36] la_data_in_mprj[37] la_data_in_mprj[38] la_data_in_mprj[39]
+ la_data_in_mprj[3] la_data_in_mprj[40] la_data_in_mprj[41] la_data_in_mprj[42] la_data_in_mprj[43]
+ la_data_in_mprj[44] la_data_in_mprj[45] la_data_in_mprj[46] la_data_in_mprj[47]
+ la_data_in_mprj[48] la_data_in_mprj[49] la_data_in_mprj[4] la_data_in_mprj[50] la_data_in_mprj[51]
+ la_data_in_mprj[52] la_data_in_mprj[53] la_data_in_mprj[54] la_data_in_mprj[55]
+ la_data_in_mprj[56] la_data_in_mprj[57] la_data_in_mprj[58] la_data_in_mprj[59]
+ la_data_in_mprj[5] la_data_in_mprj[60] la_data_in_mprj[61] la_data_in_mprj[62] la_data_in_mprj[63]
+ la_data_in_mprj[64] la_data_in_mprj[65] la_data_in_mprj[66] la_data_in_mprj[67]
+ la_data_in_mprj[68] la_data_in_mprj[69] la_data_in_mprj[6] la_data_in_mprj[70] la_data_in_mprj[71]
+ la_data_in_mprj[72] la_data_in_mprj[73] la_data_in_mprj[74] la_data_in_mprj[75]
+ la_data_in_mprj[76] la_data_in_mprj[77] la_data_in_mprj[78] la_data_in_mprj[79]
+ la_data_in_mprj[7] la_data_in_mprj[80] la_data_in_mprj[81] la_data_in_mprj[82] la_data_in_mprj[83]
+ la_data_in_mprj[84] la_data_in_mprj[85] la_data_in_mprj[86] la_data_in_mprj[87]
+ la_data_in_mprj[88] la_data_in_mprj[89] la_data_in_mprj[8] la_data_in_mprj[90] la_data_in_mprj[91]
+ la_data_in_mprj[92] la_data_in_mprj[93] la_data_in_mprj[94] la_data_in_mprj[95]
+ la_data_in_mprj[96] la_data_in_mprj[97] la_data_in_mprj[98] la_data_in_mprj[99]
+ la_data_in_mprj[9] la_data_out_core[0] la_data_out_core[100] la_data_out_core[101]
+ la_data_out_core[102] la_data_out_core[103] la_data_out_core[104] la_data_out_core[105]
+ la_data_out_core[106] la_data_out_core[107] la_data_out_core[108] la_data_out_core[109]
+ la_data_out_core[10] la_data_out_core[110] la_data_out_core[111] la_data_out_core[112]
+ la_data_out_core[113] la_data_out_core[114] la_data_out_core[115] la_data_out_core[116]
+ la_data_out_core[117] la_data_out_core[118] la_data_out_core[119] la_data_out_core[11]
+ la_data_out_core[120] la_data_out_core[121] la_data_out_core[122] la_data_out_core[123]
+ la_data_out_core[124] la_data_out_core[125] la_data_out_core[126] la_data_out_core[127]
+ la_data_out_core[12] la_data_out_core[13] la_data_out_core[14] la_data_out_core[15]
+ la_data_out_core[16] la_data_out_core[17] la_data_out_core[18] la_data_out_core[19]
+ la_data_out_core[1] la_data_out_core[20] la_data_out_core[21] la_data_out_core[22]
+ la_data_out_core[23] la_data_out_core[24] la_data_out_core[25] la_data_out_core[26]
+ la_data_out_core[27] la_data_out_core[28] la_data_out_core[29] la_data_out_core[2]
+ la_data_out_core[30] la_data_out_core[31] la_data_out_core[32] la_data_out_core[33]
+ la_data_out_core[34] la_data_out_core[35] la_data_out_core[36] la_data_out_core[37]
+ la_data_out_core[38] la_data_out_core[39] la_data_out_core[3] la_data_out_core[40]
+ la_data_out_core[41] la_data_out_core[42] la_data_out_core[43] la_data_out_core[44]
+ la_data_out_core[45] la_data_out_core[46] la_data_out_core[47] la_data_out_core[48]
+ la_data_out_core[49] la_data_out_core[4] la_data_out_core[50] la_data_out_core[51]
+ la_data_out_core[52] la_data_out_core[53] la_data_out_core[54] la_data_out_core[55]
+ la_data_out_core[56] la_data_out_core[57] la_data_out_core[58] la_data_out_core[59]