* NGSPICE file created from caravel_clocking.ext - technology: sky130A

* Black-box entry subcircuit for sky130_fd_sc_hd__fill_1 abstract view
.subckt sky130_fd_sc_hd__fill_1 VGND VNB VPB VPWR
.ends

* Black-box entry subcircuit for sky130_fd_sc_hd__tapvpwrvgnd_1 abstract view
.subckt sky130_fd_sc_hd__tapvpwrvgnd_1 VGND VPWR
.ends

* Black-box entry subcircuit for sky130_fd_sc_hd__decap_4 abstract view
.subckt sky130_fd_sc_hd__decap_4 VGND VNB VPB VPWR
.ends

* Black-box entry subcircuit for sky130_fd_sc_hd__dfrtp_1 abstract view
.subckt sky130_fd_sc_hd__dfrtp_1 CLK D RESET_B VGND VNB VPB VPWR Q
.ends

* Black-box entry subcircuit for sky130_fd_sc_hd__nor2_1 abstract view
.subckt sky130_fd_sc_hd__nor2_1 A B VGND VNB VPB VPWR Y
.ends

* Black-box entry subcircuit for sky130_fd_sc_hd__nand2_1 abstract view
.subckt sky130_fd_sc_hd__nand2_1 A B VGND VNB VPB VPWR Y
.ends

* Black-box entry subcircuit for sky130_fd_sc_hd__decap_3 abstract view
.subckt sky130_fd_sc_hd__decap_3 VGND VNB VPB VPWR
.ends

* Black-box entry subcircuit for sky130_fd_sc_hd__o21ai_1 abstract view
.subckt sky130_fd_sc_hd__o21ai_1 A1 A2 B1 VGND VNB VPB VPWR Y
.ends

* Black-box entry subcircuit for sky130_fd_sc_hd__fill_2 abstract view
.subckt sky130_fd_sc_hd__fill_2 VGND VNB VPB VPWR
.ends

* Black-box entry subcircuit for sky130_fd_sc_hd__nor3b_2 abstract view
.subckt sky130_fd_sc_hd__nor3b_2 A B C_N VGND VNB VPB VPWR Y
.ends

* Black-box entry subcircuit for sky130_ef_sc_hd__decap_12 abstract view
.subckt sky130_ef_sc_hd__decap_12 VGND VNB VPB VPWR
.ends

* Black-box entry subcircuit for sky130_fd_sc_hd__clkbuf_16 abstract view
.subckt sky130_fd_sc_hd__clkbuf_16 A VGND VNB VPB VPWR X
.ends

* Black-box entry subcircuit for sky130_fd_sc_hd__dfstp_2 abstract view
.subckt sky130_fd_sc_hd__dfstp_2 CLK D SET_B VGND VNB VPB VPWR Q
.ends

* Black-box entry subcircuit for sky130_fd_sc_hd__decap_8 abstract view
.subckt sky130_fd_sc_hd__decap_8 VGND VNB VPB VPWR
.ends

* Black-box entry subcircuit for sky130_fd_sc_hd__nand2b_1 abstract view
.subckt sky130_fd_sc_hd__nand2b_1 A_N B VGND VNB VPB VPWR Y
.ends

* Black-box entry subcircuit for sky130_fd_sc_hd__diode_2 abstract view
.subckt sky130_fd_sc_hd__diode_2 DIODE VGND VNB VPB VPWR
.ends

* Black-box entry subcircuit for sky130_fd_sc_hd__decap_6 abstract view
.subckt sky130_fd_sc_hd__decap_6 VGND VNB VPB VPWR
.ends

* Black-box entry subcircuit for sky130_fd_sc_hd__nand4bb_1 abstract view
.subckt sky130_fd_sc_hd__nand4bb_1 A_N B_N C D VGND VNB VPB VPWR Y
.ends

* Black-box entry subcircuit for sky130_fd_sc_hd__dfstp_1 abstract view
.subckt sky130_fd_sc_hd__dfstp_1 CLK D SET_B VGND VNB VPB VPWR Q
.ends

* Black-box entry subcircuit for sky130_fd_sc_hd__mux2_1 abstract view
.subckt sky130_fd_sc_hd__mux2_1 A0 A1 S VGND VNB VPB VPWR X
.ends

* Black-box entry subcircuit for sky130_fd_sc_hd__o21a_1 abstract view
.subckt sky130_fd_sc_hd__o21a_1 A1 A2 B1 VGND VNB VPB VPWR X
.ends

* Black-box entry subcircuit for sky130_fd_sc_hd__dfrtp_2 abstract view
.subckt sky130_fd_sc_hd__dfrtp_2 CLK D RESET_B VGND VNB VPB VPWR Q
.ends

* Black-box entry subcircuit for sky130_fd_sc_hd__o2bb2ai_1 abstract view
.subckt sky130_fd_sc_hd__o2bb2ai_1 A1_N A2_N B1 B2 VGND VNB VPB VPWR Y
.ends

* Black-box entry subcircuit for sky130_fd_sc_hd__inv_2 abstract view
.subckt sky130_fd_sc_hd__inv_2 A VGND VNB VPB VPWR Y
.ends

* Black-box entry subcircuit for sky130_fd_sc_hd__nor3_1 abstract view
.subckt sky130_fd_sc_hd__nor3_1 A B C VGND VNB VPB VPWR Y
.ends

* Black-box entry subcircuit for sky130_fd_sc_hd__buf_12 abstract view
.subckt sky130_fd_sc_hd__buf_12 A VGND VNB VPB VPWR X
.ends

* Black-box entry subcircuit for sky130_fd_sc_hd__a21oi_1 abstract view
.subckt sky130_fd_sc_hd__a21oi_1 A1 A2 B1 VGND VNB VPB VPWR Y
.ends

* Black-box entry subcircuit for sky130_fd_sc_hd__xnor2_1 abstract view
.subckt sky130_fd_sc_hd__xnor2_1 A B VGND VNB VPB VPWR Y
.ends

* Black-box entry subcircuit for sky130_fd_sc_hd__o2111ai_2 abstract view
.subckt sky130_fd_sc_hd__o2111ai_2 A1 A2 B1 C1 D1 VGND VNB VPB VPWR Y
.ends

* Black-box entry subcircuit for sky130_fd_sc_hd__o31ai_2 abstract view
.subckt sky130_fd_sc_hd__o31ai_2 A1 A2 A3 B1 VGND VNB VPB VPWR Y
.ends

* Black-box entry subcircuit for sky130_fd_sc_hd__and2_1 abstract view
.subckt sky130_fd_sc_hd__and2_1 A B VGND VNB VPB VPWR X
.ends

* Black-box entry subcircuit for sky130_fd_sc_hd__a41oi_1 abstract view
.subckt sky130_fd_sc_hd__a41oi_1 A1 A2 A3 A4 B1 VGND VNB VPB VPWR Y
.ends

* Black-box entry subcircuit for sky130_fd_sc_hd__clkinv_4 abstract view
.subckt sky130_fd_sc_hd__clkinv_4 A VGND VNB VPB VPWR Y
.ends

* Black-box entry subcircuit for sky130_fd_sc_hd__nand2b_2 abstract view
.subckt sky130_fd_sc_hd__nand2b_2 A_N B VGND VNB VPB VPWR Y
.ends

* Black-box entry subcircuit for sky130_fd_sc_hd__clkinv_2 abstract view
.subckt sky130_fd_sc_hd__clkinv_2 A VGND VNB VPB VPWR Y
.ends

* Black-box entry subcircuit for sky130_fd_sc_hd__clkbuf_2 abstract view
.subckt sky130_fd_sc_hd__clkbuf_2 A VGND VNB VPB VPWR X
.ends

* Black-box entry subcircuit for sky130_fd_sc_hd__dfrtn_1 abstract view
.subckt sky130_fd_sc_hd__dfrtn_1 CLK_N D RESET_B VGND VNB VPB VPWR Q
.ends

* Black-box entry subcircuit for sky130_fd_sc_hd__inv_4 abstract view
.subckt sky130_fd_sc_hd__inv_4 A VGND VNB VPB VPWR Y
.ends

* Black-box entry subcircuit for sky130_fd_sc_hd__o2111ai_1 abstract view
.subckt sky130_fd_sc_hd__o2111ai_1 A1 A2 B1 C1 D1 VGND VNB VPB VPWR Y
.ends

* Black-box entry subcircuit for sky130_fd_sc_hd__clkbuf_4 abstract view
.subckt sky130_fd_sc_hd__clkbuf_4 A VGND VNB VPB VPWR X
.ends

* Black-box entry subcircuit for sky130_fd_sc_hd__nand3_1 abstract view
.subckt sky130_fd_sc_hd__nand3_1 A B C VGND VNB VPB VPWR Y
.ends

* Black-box entry subcircuit for sky130_fd_sc_hd__o31a_1 abstract view
.subckt sky130_fd_sc_hd__o31a_1 A1 A2 A3 B1 VGND VNB VPB VPWR X
.ends

* Black-box entry subcircuit for sky130_fd_sc_hd__nor3_2 abstract view
.subckt sky130_fd_sc_hd__nor3_2 A B C VGND VNB VPB VPWR Y
.ends

* Black-box entry subcircuit for sky130_fd_sc_hd__dlymetal6s2s_1 abstract view
.subckt sky130_fd_sc_hd__dlymetal6s2s_1 A VGND VNB VPB VPWR X
.ends

* Black-box entry subcircuit for sky130_fd_sc_hd__o21bai_1 abstract view
.subckt sky130_fd_sc_hd__o21bai_1 A1 A2 B1_N VGND VNB VPB VPWR Y
.ends

* Black-box entry subcircuit for sky130_fd_sc_hd__dfrtp_4 abstract view
.subckt sky130_fd_sc_hd__dfrtp_4 CLK D RESET_B VGND VNB VPB VPWR Q
.ends

* Black-box entry subcircuit for sky130_fd_sc_hd__clkbuf_1 abstract view
.subckt sky130_fd_sc_hd__clkbuf_1 A VGND VNB VPB VPWR X
.ends

* Black-box entry subcircuit for sky130_fd_sc_hd__buf_4 abstract view
.subckt sky130_fd_sc_hd__buf_4 A VGND VNB VPB VPWR X
.ends

* Black-box entry subcircuit for sky130_fd_sc_hd__conb_1 abstract view
.subckt sky130_fd_sc_hd__conb_1 VGND VNB VPB VPWR HI LO
.ends

* Black-box entry subcircuit for sky130_fd_sc_hd__dfxtp_1 abstract view
.subckt sky130_fd_sc_hd__dfxtp_1 CLK D VGND VNB VPB VPWR Q
.ends

* Black-box entry subcircuit for sky130_fd_sc_hd__nand3b_1 abstract view
.subckt sky130_fd_sc_hd__nand3b_1 A_N B C VGND VNB VPB VPWR Y
.ends

* Black-box entry subcircuit for sky130_fd_sc_hd__a31o_1 abstract view
.subckt sky130_fd_sc_hd__a31o_1 A1 A2 A3 B1 VGND VNB VPB VPWR X
.ends

* Black-box entry subcircuit for sky130_fd_sc_hd__o22a_1 abstract view
.subckt sky130_fd_sc_hd__o22a_1 A1 A2 B1 B2 VGND VNB VPB VPWR X
.ends

* Black-box entry subcircuit for sky130_fd_sc_hd__buf_2 abstract view
.subckt sky130_fd_sc_hd__buf_2 A VGND VNB VPB VPWR X
.ends

* Black-box entry subcircuit for sky130_fd_sc_hd__o31ai_1 abstract view
.subckt sky130_fd_sc_hd__o31ai_1 A1 A2 A3 B1 VGND VNB VPB VPWR Y
.ends

* Black-box entry subcircuit for sky130_fd_sc_hd__o211ai_4 abstract view
.subckt sky130_fd_sc_hd__o211ai_4 A1 A2 B1 C1 VGND VNB VPB VPWR Y
.ends

* Black-box entry subcircuit for sky130_fd_sc_hd__o21ai_2 abstract view
.subckt sky130_fd_sc_hd__o21ai_2 A1 A2 B1 VGND VNB VPB VPWR Y
.ends

* Black-box entry subcircuit for sky130_fd_sc_hd__o21a_2 abstract view
.subckt sky130_fd_sc_hd__o21a_2 A1 A2 B1 VGND VNB VPB VPWR X
.ends

* Black-box entry subcircuit for sky130_fd_sc_hd__nor2_2 abstract view
.subckt sky130_fd_sc_hd__nor2_2 A B VGND VNB VPB VPWR Y
.ends

* Black-box entry subcircuit for sky130_fd_sc_hd__a21o_1 abstract view
.subckt sky130_fd_sc_hd__a21o_1 A1 A2 B1 VGND VNB VPB VPWR X
.ends

* Black-box entry subcircuit for sky130_fd_sc_hd__nor4_1 abstract view
.subckt sky130_fd_sc_hd__nor4_1 A B C D VGND VNB VPB VPWR Y
.ends

* Black-box entry subcircuit for sky130_fd_sc_hd__a2bb2o_1 abstract view
.subckt sky130_fd_sc_hd__a2bb2o_1 A1_N A2_N B1 B2 VGND VNB VPB VPWR X
.ends

.subckt caravel_clocking VGND VPWR core_clk ext_clk ext_clk_sel ext_reset pll_clk
+ pll_clk90 resetb resetb_sync sel2[0] sel2[1] sel2[2] sel[0] sel[1] sel[2] user_clk
XFILLER_22_144 VGND VGND VPWR VPWR sky130_fd_sc_hd__fill_1
XTAP_199 VGND VPWR sky130_fd_sc_hd__tapvpwrvgnd_1
XTAP_188 VGND VPWR sky130_fd_sc_hd__tapvpwrvgnd_1
XTAP_177 VGND VPWR sky130_fd_sc_hd__tapvpwrvgnd_1
XFILLER_26_30 VGND VGND VPWR VPWR sky130_fd_sc_hd__decap_4
X_432_ _204_/A1 _432_/D _372_/S VGND VGND VPWR VPWR _432_/Q sky130_fd_sc_hd__dfrtp_1
XFILLER_13_155 VGND VGND VPWR VPWR sky130_fd_sc_hd__fill_1
X_294_ _429_/Q _430_/Q VGND VGND VPWR VPWR _294_/Y sky130_fd_sc_hd__nor2_1
X_363_ _365_/A _429_/Q VGND VGND VPWR VPWR _363_/Y sky130_fd_sc_hd__nand2_1
XFILLER_8_170 VGND VGND VPWR VPWR sky130_fd_sc_hd__decap_3
X_415_ _204_/A1 _440_/Q _372_/S VGND VGND VPWR VPWR _415_/Q sky130_fd_sc_hd__dfrtp_1
X_346_ _416_/D _292_/Y _419_/Q VGND VGND VPWR VPWR _347_/B sky130_fd_sc_hd__o21ai_1
XFILLER_12_76 VGND VGND VPWR VPWR sky130_fd_sc_hd__fill_2
XFILLER_10_136 VGND VGND VPWR VPWR sky130_fd_sc_hd__fill_1
XFILLER_6_118 VGND VGND VPWR VPWR sky130_fd_sc_hd__fill_1
X_277_ _422_/Q _423_/Q _421_/Q VGND VGND VPWR VPWR _277_/Y sky130_fd_sc_hd__nor3b_2
XFILLER_5_195 VGND VGND VPWR VPWR sky130_fd_sc_hd__fill_1
XFILLER_23_53 VGND VGND VPWR VPWR sky130_fd_sc_hd__decap_4
XFILLER_9_77 VGND VGND VPWR VPWR sky130_fd_sc_hd__fill_1
XFILLER_9_22 VGND VGND VPWR VPWR sky130_fd_sc_hd__decap_4
XFILLER_0_79 VGND VGND VPWR VPWR sky130_ef_sc_hd__decap_12
XFILLER_0_35 VGND VGND VPWR VPWR sky130_fd_sc_hd__decap_4
X_329_ _329_/A _329_/B VGND VGND VPWR VPWR _329_/Y sky130_fd_sc_hd__nor2_1
XFILLER_18_64 VGND VGND VPWR VPWR sky130_fd_sc_hd__fill_1
XTAP_326 VGND VPWR sky130_fd_sc_hd__tapvpwrvgnd_1
XTAP_315 VGND VPWR sky130_fd_sc_hd__tapvpwrvgnd_1
XTAP_304 VGND VPWR sky130_fd_sc_hd__tapvpwrvgnd_1
XFILLER_19_194 VGND VGND VPWR VPWR sky130_fd_sc_hd__fill_2
XFILLER_19_183 VGND VGND VPWR VPWR sky130_fd_sc_hd__fill_1
XFILLER_13_3 VGND VGND VPWR VPWR sky130_fd_sc_hd__fill_1
XFILLER_6_78 VGND VGND VPWR VPWR sky130_fd_sc_hd__decap_3
XFILLER_31_53 VGND VGND VPWR VPWR sky130_fd_sc_hd__fill_1
XFILLER_25_197 VGND VGND VPWR VPWR sky130_fd_sc_hd__decap_3
XFILLER_25_153 VGND VGND VPWR VPWR sky130_fd_sc_hd__decap_3
XFILLER_25_131 VGND VGND VPWR VPWR sky130_fd_sc_hd__fill_1
XFILLER_15_76 VGND VGND VPWR VPWR sky130_fd_sc_hd__fill_2
XFILLER_15_21 VGND VGND VPWR VPWR sky130_fd_sc_hd__decap_4
Xclkbuf_1_1__f__037_ clkbuf_0__037_/X VGND VGND VPWR VPWR _208_/A0 sky130_fd_sc_hd__clkbuf_16
XFILLER_16_131 VGND VGND VPWR VPWR sky130_fd_sc_hd__fill_2
XTAP_189 VGND VPWR sky130_fd_sc_hd__tapvpwrvgnd_1
XTAP_178 VGND VPWR sky130_fd_sc_hd__tapvpwrvgnd_1
XTAP_167 VGND VPWR sky130_fd_sc_hd__tapvpwrvgnd_1
XTAP_156 VGND VPWR sky130_fd_sc_hd__tapvpwrvgnd_1
XTAP_145 VGND VPWR sky130_fd_sc_hd__tapvpwrvgnd_1
XTAP_134 VGND VPWR sky130_fd_sc_hd__tapvpwrvgnd_1
XTAP_101 VGND VPWR sky130_fd_sc_hd__tapvpwrvgnd_1
XTAP_112 VGND VPWR sky130_fd_sc_hd__tapvpwrvgnd_1
XTAP_123 VGND VPWR sky130_fd_sc_hd__tapvpwrvgnd_1
X_431_ _204_/A1 _431_/D _372_/S VGND VGND VPWR VPWR _431_/Q sky130_fd_sc_hd__dfstp_2
XFILLER_13_189 VGND VGND VPWR VPWR sky130_fd_sc_hd__decap_8
XFILLER_13_167 VGND VGND VPWR VPWR sky130_fd_sc_hd__fill_2
XFILLER_13_101 VGND VGND VPWR VPWR sky130_fd_sc_hd__decap_3
X_293_ _223_/S _365_/A VGND VGND VPWR VPWR _293_/Y sky130_fd_sc_hd__nand2b_1
XFILLER_9_127 VGND VGND VPWR VPWR sky130_fd_sc_hd__decap_3
XFILLER_9_105 VGND VGND VPWR VPWR sky130_fd_sc_hd__fill_2
XFILLER_3_13 VGND VGND VPWR VPWR sky130_fd_sc_hd__fill_2
XFILLER_3_24 VGND VGND VPWR VPWR sky130_fd_sc_hd__fill_2
XFILLER_3_79 VGND VGND VPWR VPWR sky130_fd_sc_hd__decap_4
X_362_ _295_/C _293_/Y _361_/Y VGND VGND VPWR VPWR _428_/D sky130_fd_sc_hd__o21ai_1
XANTENNA__265__A1 _327_/A VGND VGND VPWR VPWR sky130_fd_sc_hd__diode_2
XFILLER_12_66 VGND VGND VPWR VPWR sky130_fd_sc_hd__decap_6
XFILLER_12_11 VGND VGND VPWR VPWR sky130_fd_sc_hd__fill_2
XFILLER_10_126 VGND VGND VPWR VPWR sky130_fd_sc_hd__fill_2
XFILLER_10_104 VGND VGND VPWR VPWR sky130_ef_sc_hd__decap_12
X_345_ _311_/C _419_/Q _345_/C _431_/Q VGND VGND VPWR VPWR _347_/A sky130_fd_sc_hd__nand4bb_1
X_414_ _207_/A1 _414_/D fanout27/X VGND VGND VPWR VPWR _414_/Q sky130_fd_sc_hd__dfstp_1
X_276_ _426_/Q _210_/X _360_/S VGND VGND VPWR VPWR _426_/D sky130_fd_sc_hd__mux2_1
XFILLER_9_45 VGND VGND VPWR VPWR sky130_fd_sc_hd__decap_6
X_328_ _442_/D _441_/D _327_/A VGND VGND VPWR VPWR _329_/B sky130_fd_sc_hd__o21a_1
XFILLER_0_58 VGND VGND VPWR VPWR sky130_fd_sc_hd__decap_6
XFILLER_0_14 VGND VGND VPWR VPWR sky130_ef_sc_hd__decap_12
XFILLER_2_144 VGND VGND VPWR VPWR sky130_fd_sc_hd__fill_1
XFILLER_2_199 VGND VGND VPWR VPWR sky130_fd_sc_hd__fill_1
XANTENNA__395__B1 _311_/C VGND VGND VPWR VPWR sky130_fd_sc_hd__diode_2
XFILLER_29_129 VGND VGND VPWR VPWR sky130_fd_sc_hd__fill_1
XFILLER_29_75 VGND VGND VPWR VPWR sky130_fd_sc_hd__decap_3
XFILLER_29_53 VGND VGND VPWR VPWR sky130_fd_sc_hd__fill_2
XFILLER_29_20 VGND VGND VPWR VPWR sky130_fd_sc_hd__decap_6
XFILLER_20_88 VGND VGND VPWR VPWR sky130_fd_sc_hd__decap_3
XFILLER_20_66 VGND VGND VPWR VPWR sky130_fd_sc_hd__fill_1
XFILLER_20_55 VGND VGND VPWR VPWR sky130_fd_sc_hd__decap_3
XFILLER_20_11 VGND VGND VPWR VPWR sky130_fd_sc_hd__fill_2
XTAP_327 VGND VPWR sky130_fd_sc_hd__tapvpwrvgnd_1
XTAP_316 VGND VPWR sky130_fd_sc_hd__tapvpwrvgnd_1
XTAP_305 VGND VPWR sky130_fd_sc_hd__tapvpwrvgnd_1
XFILLER_15_11 VGND VGND VPWR VPWR sky130_fd_sc_hd__fill_1
XFILLER_31_179 VGND VGND VPWR VPWR sky130_fd_sc_hd__decap_3
XFILLER_31_157 VGND VGND VPWR VPWR sky130_fd_sc_hd__fill_1
XFILLER_22_168 VGND VGND VPWR VPWR sky130_fd_sc_hd__fill_1
XFILLER_22_113 VGND VGND VPWR VPWR sky130_fd_sc_hd__decap_4
XTAP_179 VGND VPWR sky130_fd_sc_hd__tapvpwrvgnd_1
XTAP_168 VGND VPWR sky130_fd_sc_hd__tapvpwrvgnd_1
XTAP_157 VGND VPWR sky130_fd_sc_hd__tapvpwrvgnd_1
XTAP_146 VGND VPWR sky130_fd_sc_hd__tapvpwrvgnd_1
XTAP_135 VGND VPWR sky130_fd_sc_hd__tapvpwrvgnd_1
XTAP_102 VGND VPWR sky130_fd_sc_hd__tapvpwrvgnd_1
XTAP_113 VGND VPWR sky130_fd_sc_hd__tapvpwrvgnd_1
XTAP_124 VGND VPWR sky130_fd_sc_hd__tapvpwrvgnd_1
X_292_ _431_/Q _345_/C VGND VGND VPWR VPWR _292_/Y sky130_fd_sc_hd__nand2_1
XFILLER_13_179 VGND VGND VPWR VPWR sky130_fd_sc_hd__decap_3
XFILLER_13_157 VGND VGND VPWR VPWR sky130_fd_sc_hd__fill_1
XFILLER_13_113 VGND VGND VPWR VPWR sky130_fd_sc_hd__fill_1
X_430_ _456_/CLK _430_/D fanout26/X VGND VGND VPWR VPWR _430_/Q sky130_fd_sc_hd__dfrtp_2
X_361_ _223_/S _280_/X _219_/X VGND VGND VPWR VPWR _361_/Y sky130_fd_sc_hd__o21ai_1
XFILLER_8_194 VGND VGND VPWR VPWR sky130_fd_sc_hd__fill_1
XFILLER_10_116 VGND VGND VPWR VPWR sky130_fd_sc_hd__fill_1
X_413_ _204_/A1 _413_/D _372_/S VGND VGND VPWR VPWR _413_/Q sky130_fd_sc_hd__dfrtp_1
X_344_ _414_/Q _342_/Y _343_/Y VGND VGND VPWR VPWR _414_/D sky130_fd_sc_hd__o21ai_1
X_275_ _232_/X _273_/Y _274_/Y _234_/S VGND VGND VPWR VPWR _447_/D sky130_fd_sc_hd__o2bb2ai_1
XFILLER_5_131 VGND VGND VPWR VPWR sky130_ef_sc_hd__decap_12
XFILLER_4_90 VGND VGND VPWR VPWR sky130_fd_sc_hd__fill_1
XFILLER_23_77 VGND VGND VPWR VPWR sky130_fd_sc_hd__fill_1
XFILLER_3_3 VGND VGND VPWR VPWR sky130_fd_sc_hd__fill_1
X_258_ _258_/A VGND VGND VPWR VPWR _258_/Y sky130_fd_sc_hd__inv_2
XFILLER_9_79 VGND VGND VPWR VPWR sky130_fd_sc_hd__decap_3
X_327_ _327_/A _442_/D _441_/D VGND VGND VPWR VPWR _329_/A sky130_fd_sc_hd__nor3_1
XFILLER_18_66 VGND VGND VPWR VPWR sky130_fd_sc_hd__fill_1
XANTENNA__452__RESET_B fanout28/X VGND VGND VPWR VPWR sky130_fd_sc_hd__diode_2
XTAP_317 VGND VPWR sky130_fd_sc_hd__tapvpwrvgnd_1
XTAP_306 VGND VPWR sky130_fd_sc_hd__tapvpwrvgnd_1
XFILLER_28_196 VGND VGND VPWR VPWR sky130_fd_sc_hd__fill_1
XFILLER_6_14 VGND VGND VPWR VPWR sky130_ef_sc_hd__decap_12
XFILLER_19_174 VGND VGND VPWR VPWR sky130_fd_sc_hd__fill_2
XFILLER_19_152 VGND VGND VPWR VPWR sky130_fd_sc_hd__decap_4
Xoutput11 _341_/Y VGND VGND VPWR VPWR resetb_sync sky130_fd_sc_hd__buf_12
XFILLER_16_144 VGND VGND VPWR VPWR sky130_fd_sc_hd__decap_8
XFILLER_31_103 VGND VGND VPWR VPWR sky130_fd_sc_hd__fill_1
XTAP_169 VGND VPWR sky130_fd_sc_hd__tapvpwrvgnd_1
XTAP_158 VGND VPWR sky130_fd_sc_hd__tapvpwrvgnd_1
XTAP_147 VGND VPWR sky130_fd_sc_hd__tapvpwrvgnd_1
XTAP_136 VGND VPWR sky130_fd_sc_hd__tapvpwrvgnd_1
XTAP_125 VGND VPWR sky130_fd_sc_hd__tapvpwrvgnd_1
XTAP_103 VGND VPWR sky130_fd_sc_hd__tapvpwrvgnd_1
XTAP_114 VGND VPWR sky130_fd_sc_hd__tapvpwrvgnd_1
X_291_ _432_/Q _433_/Q VGND VGND VPWR VPWR _345_/C sky130_fd_sc_hd__nor2_1
XFILLER_26_77 VGND VGND VPWR VPWR sky130_fd_sc_hd__decap_3
XFILLER_26_66 VGND VGND VPWR VPWR sky130_fd_sc_hd__fill_1
XFILLER_26_11 VGND VGND VPWR VPWR sky130_fd_sc_hd__fill_2
X_360_ _427_/Q _211_/X _360_/S VGND VGND VPWR VPWR _427_/D sky130_fd_sc_hd__mux2_1
XFILLER_12_46 VGND VGND VPWR VPWR sky130_fd_sc_hd__decap_6
XFILLER_12_35 VGND VGND VPWR VPWR sky130_fd_sc_hd__decap_4
XFILLER_12_24 VGND VGND VPWR VPWR sky130_fd_sc_hd__decap_8
X_412_ _456_/CLK _412_/D fanout26/X VGND VGND VPWR VPWR _413_/D sky130_fd_sc_hd__dfrtp_1
X_343_ _342_/Y _414_/Q _234_/S VGND VGND VPWR VPWR _343_/Y sky130_fd_sc_hd__a21oi_1
X_274_ _385_/B _447_/Q VGND VGND VPWR VPWR _274_/Y sky130_fd_sc_hd__nand2_1
XFILLER_5_143 VGND VGND VPWR VPWR sky130_fd_sc_hd__decap_4
XFILLER_5_154 VGND VGND VPWR VPWR sky130_fd_sc_hd__fill_2
XFILLER_23_23 VGND VGND VPWR VPWR sky130_fd_sc_hd__decap_3
XFILLER_0_27 VGND VGND VPWR VPWR sky130_fd_sc_hd__fill_1
XFILLER_2_168 VGND VGND VPWR VPWR sky130_fd_sc_hd__fill_1
XFILLER_29_3 VGND VGND VPWR VPWR sky130_ef_sc_hd__decap_12
XFILLER_9_69 VGND VGND VPWR VPWR sky130_fd_sc_hd__decap_8
XFILLER_9_58 VGND VGND VPWR VPWR sky130_fd_sc_hd__decap_6
X_326_ _451_/Q _450_/Q VGND VGND VPWR VPWR _326_/Y sky130_fd_sc_hd__xnor2_1
X_257_ _257_/A VGND VGND VPWR VPWR _257_/Y sky130_fd_sc_hd__inv_2
XFILLER_18_89 VGND VGND VPWR VPWR sky130_fd_sc_hd__fill_2
XFILLER_18_56 VGND VGND VPWR VPWR sky130_fd_sc_hd__decap_8
XFILLER_18_12 VGND VGND VPWR VPWR sky130_fd_sc_hd__fill_1
XANTENNA__395__A2 _311_/B VGND VGND VPWR VPWR sky130_fd_sc_hd__diode_2
X_309_ _311_/B _311_/C VGND VGND VPWR VPWR _309_/Y sky130_fd_sc_hd__xnor2_1
XFILLER_29_33 VGND VGND VPWR VPWR sky130_fd_sc_hd__fill_2
XFILLER_28_175 VGND VGND VPWR VPWR sky130_fd_sc_hd__fill_2
Xclkbuf_0_divider.out _304_/Y VGND VGND VPWR VPWR clkbuf_0_divider.out/X sky130_fd_sc_hd__clkbuf_16
XFILLER_20_46 VGND VGND VPWR VPWR sky130_fd_sc_hd__fill_2
XFILLER_6_26 VGND VGND VPWR VPWR sky130_ef_sc_hd__decap_12
XTAP_318 VGND VPWR sky130_fd_sc_hd__tapvpwrvgnd_1
XTAP_307 VGND VPWR sky130_fd_sc_hd__tapvpwrvgnd_1
XFILLER_19_131 VGND VGND VPWR VPWR sky130_ef_sc_hd__decap_12
XFILLER_25_123 VGND VGND VPWR VPWR sky130_fd_sc_hd__decap_6
XFILLER_15_79 VGND VGND VPWR VPWR sky130_ef_sc_hd__decap_12
XTAP_159 VGND VPWR sky130_fd_sc_hd__tapvpwrvgnd_1
XFILLER_11_3 VGND VGND VPWR VPWR sky130_fd_sc_hd__fill_1
XTAP_148 VGND VPWR sky130_fd_sc_hd__tapvpwrvgnd_1
XTAP_137 VGND VPWR sky130_fd_sc_hd__tapvpwrvgnd_1
XTAP_104 VGND VPWR sky130_fd_sc_hd__tapvpwrvgnd_1
XTAP_115 VGND VPWR sky130_fd_sc_hd__tapvpwrvgnd_1
XTAP_126 VGND VPWR sky130_fd_sc_hd__tapvpwrvgnd_1
XFILLER_30_170 VGND VGND VPWR VPWR sky130_fd_sc_hd__decap_4
XFILLER_26_89 VGND VGND VPWR VPWR sky130_fd_sc_hd__fill_2
XFILLER_26_34 VGND VGND VPWR VPWR sky130_fd_sc_hd__fill_1
XANTENNA_input8_A sel[1] VGND VGND VPWR VPWR sky130_fd_sc_hd__diode_2
XFILLER_7_91 VGND VGND VPWR VPWR sky130_ef_sc_hd__decap_12
XFILLER_3_27 VGND VGND VPWR VPWR sky130_fd_sc_hd__fill_1
X_290_ _215_/X _288_/Y _289_/Y _219_/S VGND VGND VPWR VPWR _422_/D sky130_fd_sc_hd__o2bb2ai_1
Xclkbuf_0_pll_clk pll_clk VGND VGND VPWR VPWR clkbuf_0_pll_clk/X sky130_fd_sc_hd__clkbuf_16
XFILLER_12_192 VGND VGND VPWR VPWR sky130_fd_sc_hd__decap_3
XFILLER_12_170 VGND VGND VPWR VPWR sky130_fd_sc_hd__decap_6
XFILLER_12_14 VGND VGND VPWR VPWR sky130_fd_sc_hd__fill_1
XFILLER_10_118 VGND VGND VPWR VPWR sky130_fd_sc_hd__decap_8
XFILLER_8_196 VGND VGND VPWR VPWR sky130_fd_sc_hd__decap_4
X_411_ _411_/CLK _411_/D _372_/S VGND VGND VPWR VPWR _411_/Q sky130_fd_sc_hd__dfstp_1
X_273_ _234_/S _385_/B VGND VGND VPWR VPWR _273_/Y sky130_fd_sc_hd__nand2b_1
X_342_ _327_/A _442_/D _441_/D _453_/Q _299_/Y VGND VGND VPWR VPWR _342_/Y sky130_fd_sc_hd__o2111ai_2
XANTENNA__446__RESET_B fanout28/X VGND VGND VPWR VPWR sky130_fd_sc_hd__diode_2
XFILLER_5_199 VGND VGND VPWR VPWR sky130_fd_sc_hd__fill_1
XFILLER_23_79 VGND VGND VPWR VPWR sky130_fd_sc_hd__decap_3
XFILLER_23_68 VGND VGND VPWR VPWR sky130_fd_sc_hd__fill_2
XFILLER_4_92 VGND VGND VPWR VPWR sky130_fd_sc_hd__fill_1
XFILLER_9_15 VGND VGND VPWR VPWR sky130_fd_sc_hd__fill_2
X_325_ _442_/D _441_/D VGND VGND VPWR VPWR _325_/Y sky130_fd_sc_hd__xnor2_1
X_308_ _307_/Y _298_/B _306_/X _305_/Y VGND VGND VPWR VPWR _308_/Y sky130_fd_sc_hd__o31ai_2
XFILLER_1_93 VGND VGND VPWR VPWR sky130_fd_sc_hd__fill_1
XFILLER_1_60 VGND VGND VPWR VPWR sky130_fd_sc_hd__decap_8
X_239_ _339_/Y _327_/A _300_/Y VGND VGND VPWR VPWR _239_/X sky130_fd_sc_hd__mux2_1
XFILLER_28_165 VGND VGND VPWR VPWR sky130_fd_sc_hd__decap_4
XFILLER_20_14 VGND VGND VPWR VPWR sky130_fd_sc_hd__decap_8
XTAP_319 VGND VPWR sky130_fd_sc_hd__tapvpwrvgnd_1
XTAP_308 VGND VPWR sky130_fd_sc_hd__tapvpwrvgnd_1
XFILLER_6_38 VGND VGND VPWR VPWR sky130_fd_sc_hd__fill_1
XFILLER_31_79 VGND VGND VPWR VPWR sky130_fd_sc_hd__decap_4
XFILLER_25_157 VGND VGND VPWR VPWR sky130_fd_sc_hd__fill_2
XFILLER_15_25 VGND VGND VPWR VPWR sky130_fd_sc_hd__fill_1
XANTENNA__451__SET_B fanout28/X VGND VGND VPWR VPWR sky130_fd_sc_hd__diode_2
XFILLER_31_127 VGND VGND VPWR VPWR sky130_fd_sc_hd__decap_3
XFILLER_31_105 VGND VGND VPWR VPWR sky130_fd_sc_hd__fill_1
XFILLER_16_135 VGND VGND VPWR VPWR sky130_fd_sc_hd__decap_8
XTAP_149 VGND VPWR sky130_fd_sc_hd__tapvpwrvgnd_1
XTAP_138 VGND VPWR sky130_fd_sc_hd__tapvpwrvgnd_1
XTAP_105 VGND VPWR sky130_fd_sc_hd__tapvpwrvgnd_1
XTAP_116 VGND VPWR sky130_fd_sc_hd__tapvpwrvgnd_1
XTAP_127 VGND VPWR sky130_fd_sc_hd__tapvpwrvgnd_1
XFILLER_26_57 VGND VGND VPWR VPWR sky130_fd_sc_hd__fill_2
XFILLER_26_24 VGND VGND VPWR VPWR sky130_fd_sc_hd__fill_2
XFILLER_21_160 VGND VGND VPWR VPWR sky130_fd_sc_hd__decap_3
XFILLER_13_105 VGND VGND VPWR VPWR sky130_fd_sc_hd__decap_8
XFILLER_16_90 VGND VGND VPWR VPWR sky130_fd_sc_hd__fill_1
Xclkbuf_1_0__f_pll_clk90 clkbuf_0_pll_clk90/X VGND VGND VPWR VPWR _455_/CLK sky130_fd_sc_hd__clkbuf_16
XFILLER_12_160 VGND VGND VPWR VPWR sky130_fd_sc_hd__decap_8
XFILLER_8_142 VGND VGND VPWR VPWR sky130_fd_sc_hd__fill_1
X_341_ _341_/A _409_/Q VGND VGND VPWR VPWR _341_/Y sky130_fd_sc_hd__nor2_1
X_410_ _410_/CLK _411_/Q _372_/S VGND VGND VPWR VPWR _410_/Q sky130_fd_sc_hd__dfstp_1
X_272_ _263_/Y _265_/X _234_/S VGND VGND VPWR VPWR _272_/Y sky130_fd_sc_hd__a21oi_1
XFILLER_4_71 VGND VGND VPWR VPWR sky130_fd_sc_hd__fill_2
XFILLER_4_82 VGND VGND VPWR VPWR sky130_fd_sc_hd__decap_8
X_324_ _432_/Q _431_/Q VGND VGND VPWR VPWR _324_/Y sky130_fd_sc_hd__xnor2_1
XFILLER_9_27 VGND VGND VPWR VPWR sky130_ef_sc_hd__decap_12
X_255_ _255_/A VGND VGND VPWR VPWR _255_/Y sky130_fd_sc_hd__inv_2
XFILLER_1_192 VGND VGND VPWR VPWR sky130_fd_sc_hd__fill_2
XFILLER_18_69 VGND VGND VPWR VPWR sky130_ef_sc_hd__decap_12
XFILLER_18_47 VGND VGND VPWR VPWR sky130_fd_sc_hd__fill_2
XFILLER_18_36 VGND VGND VPWR VPWR sky130_fd_sc_hd__decap_3
XFILLER_18_14 VGND VGND VPWR VPWR sky130_fd_sc_hd__fill_1
XFILLER_1_3 VGND VGND VPWR VPWR sky130_ef_sc_hd__decap_12
X_307_ _449_/Q _414_/Q VGND VGND VPWR VPWR _307_/Y sky130_fd_sc_hd__nor2_1
X_238_ _237_/X _442_/D _240_/S VGND VGND VPWR VPWR _238_/X sky130_fd_sc_hd__mux2_1
XFILLER_29_79 VGND VGND VPWR VPWR sky130_fd_sc_hd__decap_4
XFILLER_28_199 VGND VGND VPWR VPWR sky130_fd_sc_hd__fill_1
XFILLER_28_144 VGND VGND VPWR VPWR sky130_fd_sc_hd__fill_1
XTAP_309 VGND VPWR sky130_fd_sc_hd__tapvpwrvgnd_1
XFILLER_19_199 VGND VGND VPWR VPWR sky130_fd_sc_hd__fill_1
XFILLER_10_92 VGND VGND VPWR VPWR sky130_ef_sc_hd__decap_12
XFILLER_31_25 VGND VGND VPWR VPWR sky130_fd_sc_hd__fill_1
XFILLER_25_103 VGND VGND VPWR VPWR sky130_fd_sc_hd__fill_1
XFILLER_30_194 VGND VGND VPWR VPWR sky130_fd_sc_hd__fill_1
XTAP_139 VGND VPWR sky130_fd_sc_hd__tapvpwrvgnd_1
XPHY_0 VGND VGND VPWR VPWR sky130_fd_sc_hd__decap_3
XTAP_106 VGND VPWR sky130_fd_sc_hd__tapvpwrvgnd_1
XTAP_117 VGND VPWR sky130_fd_sc_hd__tapvpwrvgnd_1
XTAP_128 VGND VPWR sky130_fd_sc_hd__tapvpwrvgnd_1
XFILLER_26_69 VGND VGND VPWR VPWR sky130_fd_sc_hd__decap_8
XFILLER_26_14 VGND VGND VPWR VPWR sky130_fd_sc_hd__fill_1
XFILLER_21_183 VGND VGND VPWR VPWR sky130_fd_sc_hd__fill_1
XFILLER_32_90 VGND VGND VPWR VPWR sky130_fd_sc_hd__fill_1
XFILLER_8_132 VGND VGND VPWR VPWR sky130_fd_sc_hd__fill_2
X_340_ _458_/Q _457_/Q VGND VGND VPWR VPWR _340_/Y sky130_fd_sc_hd__xnor2_1
X_271_ _271_/A _271_/B VGND VGND VPWR VPWR _449_/D sky130_fd_sc_hd__nand2_1
XFILLER_5_124 VGND VGND VPWR VPWR sky130_fd_sc_hd__decap_6
XFILLER_5_157 VGND VGND VPWR VPWR sky130_fd_sc_hd__fill_1
XFILLER_5_179 VGND VGND VPWR VPWR sky130_fd_sc_hd__decap_3
XFILLER_23_15 VGND VGND VPWR VPWR sky130_fd_sc_hd__decap_8
XFILLER_4_61 VGND VGND VPWR VPWR sky130_fd_sc_hd__decap_4
XANTENNA__455__RESET_B fanout28/X VGND VGND VPWR VPWR sky130_fd_sc_hd__diode_2
XFILLER_9_39 VGND VGND VPWR VPWR sky130_fd_sc_hd__decap_3
X_323_ _321_/Y _323_/B VGND VGND VPWR VPWR _323_/Y sky130_fd_sc_hd__nand2b_1
XFILLER_2_105 VGND VGND VPWR VPWR sky130_ef_sc_hd__decap_12
XANTENNA__240__A1 _327_/A VGND VGND VPWR VPWR sky130_fd_sc_hd__diode_2
XFILLER_27_3 VGND VGND VPWR VPWR sky130_fd_sc_hd__fill_1
X_306_ _449_/Q _414_/Q VGND VGND VPWR VPWR _306_/X sky130_fd_sc_hd__and2_1
X_237_ _336_/Y _442_/D _300_/Y VGND VGND VPWR VPWR _237_/X sky130_fd_sc_hd__mux2_1
XFILLER_20_27 VGND VGND VPWR VPWR sky130_ef_sc_hd__decap_12
XFILLER_1_51 VGND VGND VPWR VPWR sky130_fd_sc_hd__fill_1
XFILLER_19_167 VGND VGND VPWR VPWR sky130_fd_sc_hd__decap_3
XFILLER_19_123 VGND VGND VPWR VPWR sky130_fd_sc_hd__decap_6
XANTENNA__213__A1 _311_/C VGND VGND VPWR VPWR sky130_fd_sc_hd__diode_2
XFILLER_25_115 VGND VGND VPWR VPWR sky130_fd_sc_hd__fill_2
XFILLER_15_49 VGND VGND VPWR VPWR sky130_fd_sc_hd__decap_3
XFILLER_15_27 VGND VGND VPWR VPWR sky130_fd_sc_hd__decap_4
XFILLER_31_48 VGND VGND VPWR VPWR sky130_fd_sc_hd__decap_4
XFILLER_24_170 VGND VGND VPWR VPWR sky130_fd_sc_hd__fill_1
XFILLER_16_126 VGND VGND VPWR VPWR sky130_fd_sc_hd__decap_3
XFILLER_22_118 VGND VGND VPWR VPWR sky130_fd_sc_hd__fill_1
XFILLER_15_181 VGND VGND VPWR VPWR sky130_fd_sc_hd__fill_1
XPHY_1 VGND VGND VPWR VPWR sky130_fd_sc_hd__decap_3
XTAP_107 VGND VPWR sky130_fd_sc_hd__tapvpwrvgnd_1
XTAP_118 VGND VPWR sky130_fd_sc_hd__tapvpwrvgnd_1
XTAP_129 VGND VPWR sky130_fd_sc_hd__tapvpwrvgnd_1
XFILLER_21_173 VGND VGND VPWR VPWR sky130_fd_sc_hd__fill_2
XFILLER_13_118 VGND VGND VPWR VPWR sky130_ef_sc_hd__decap_12
XFILLER_16_92 VGND VGND VPWR VPWR sky130_fd_sc_hd__fill_1
XFILLER_8_144 VGND VGND VPWR VPWR sky130_fd_sc_hd__fill_1
XANTENNA_input6_A sel2[2] VGND VGND VPWR VPWR sky130_fd_sc_hd__diode_2
X_270_ _262_/Y _263_/Y _265_/X _243_/Y _234_/S VGND VGND VPWR VPWR _271_/B sky130_fd_sc_hd__a41oi_1
X_399_ _242_/X _458_/Q _400_/A VGND VGND VPWR VPWR _458_/D sky130_fd_sc_hd__mux2_1
XFILLER_4_40 VGND VGND VPWR VPWR sky130_ef_sc_hd__decap_12
XTAP_290 VGND VPWR sky130_fd_sc_hd__tapvpwrvgnd_1
XFILLER_23_27 VGND VGND VPWR VPWR sky130_fd_sc_hd__decap_8
X_322_ _428_/Q _429_/Q _430_/Q VGND VGND VPWR VPWR _323_/B sky130_fd_sc_hd__o21ai_1
XFILLER_2_128 VGND VGND VPWR VPWR sky130_fd_sc_hd__fill_2
XFILLER_2_139 VGND VGND VPWR VPWR sky130_fd_sc_hd__decap_4
Xclkbuf_1_0__f_net10 clkbuf_0_net10/X VGND VGND VPWR VPWR core_clk sky130_fd_sc_hd__clkbuf_16
XFILLER_1_183 VGND VGND VPWR VPWR sky130_fd_sc_hd__decap_4
X_253_ _253_/A VGND VGND VPWR VPWR _412_/D sky130_fd_sc_hd__clkinv_4
XFILLER_24_92 VGND VGND VPWR VPWR sky130_fd_sc_hd__fill_1
X_305_ _441_/D _305_/B VGND VGND VPWR VPWR _305_/Y sky130_fd_sc_hd__nand2b_2
X_236_ _235_/X _441_/D _240_/S VGND VGND VPWR VPWR _236_/X sky130_fd_sc_hd__mux2_1
XFILLER_1_41 VGND VGND VPWR VPWR sky130_fd_sc_hd__decap_6
XFILLER_28_113 VGND VGND VPWR VPWR sky130_fd_sc_hd__decap_4
XANTENNA_fanout27_A fanout28/X VGND VGND VPWR VPWR sky130_fd_sc_hd__diode_2
XFILLER_19_113 VGND VGND VPWR VPWR sky130_fd_sc_hd__decap_3
XFILLER_25_105 VGND VGND VPWR VPWR sky130_fd_sc_hd__decap_4
XFILLER_19_157 VGND VGND VPWR VPWR sky130_fd_sc_hd__fill_1
X_219_ _218_/X _311_/C _219_/S VGND VGND VPWR VPWR _219_/X sky130_fd_sc_hd__mux2_1
XFILLER_31_27 VGND VGND VPWR VPWR sky130_fd_sc_hd__fill_1
XANTENNA_clkbuf_0_pll_clk_A pll_clk VGND VGND VPWR VPWR sky130_fd_sc_hd__diode_2
XPHY_2 VGND VGND VPWR VPWR sky130_fd_sc_hd__decap_3
XTAP_108 VGND VPWR sky130_fd_sc_hd__tapvpwrvgnd_1
XTAP_119 VGND VPWR sky130_fd_sc_hd__tapvpwrvgnd_1
XFILLER_30_196 VGND VGND VPWR VPWR sky130_fd_sc_hd__decap_4
XFILLER_26_38 VGND VGND VPWR VPWR sky130_fd_sc_hd__fill_1
XFILLER_21_152 VGND VGND VPWR VPWR sky130_fd_sc_hd__decap_4
XFILLER_7_51 VGND VGND VPWR VPWR sky130_fd_sc_hd__fill_1
XFILLER_7_73 VGND VGND VPWR VPWR sky130_fd_sc_hd__decap_4
XFILLER_32_92 VGND VGND VPWR VPWR sky130_fd_sc_hd__decap_6
XFILLER_12_196 VGND VGND VPWR VPWR sky130_fd_sc_hd__decap_4
XFILLER_12_141 VGND VGND VPWR VPWR sky130_fd_sc_hd__fill_2
XFILLER_8_112 VGND VGND VPWR VPWR sky130_fd_sc_hd__decap_4
X_398_ _241_/X _457_/Q _400_/A VGND VGND VPWR VPWR _457_/D sky130_fd_sc_hd__mux2_1
XFILLER_4_170 VGND VGND VPWR VPWR sky130_fd_sc_hd__decap_8
XTAP_291 VGND VPWR sky130_fd_sc_hd__tapvpwrvgnd_1
XTAP_280 VGND VPWR sky130_fd_sc_hd__tapvpwrvgnd_1