* NGSPICE file created from caravel_clocking.ext - technology: sky130A

* Black-box entry subcircuit for sky130_fd_sc_hd__tapvpwrvgnd_1 abstract view
.subckt sky130_fd_sc_hd__tapvpwrvgnd_1 VGND VPWR
.ends

* Black-box entry subcircuit for sky130_fd_sc_hd__decap_4 abstract view
.subckt sky130_fd_sc_hd__decap_4 VGND VNB VPB VPWR
.ends

* Black-box entry subcircuit for sky130_fd_sc_hd__decap_3 abstract view
.subckt sky130_fd_sc_hd__decap_3 VGND VNB VPB VPWR
.ends

* Black-box entry subcircuit for sky130_fd_sc_hd__decap_8 abstract view
.subckt sky130_fd_sc_hd__decap_8 VGND VNB VPB VPWR
.ends

* Black-box entry subcircuit for sky130_fd_sc_hd__dfrtn_1 abstract view
.subckt sky130_fd_sc_hd__dfrtn_1 CLK_N D RESET_B VGND VNB VPB VPWR Q
.ends

* Black-box entry subcircuit for sky130_fd_sc_hd__o2bb2ai_1 abstract view
.subckt sky130_fd_sc_hd__o2bb2ai_1 A1_N A2_N B1 B2 VGND VNB VPB VPWR Y
.ends

* Black-box entry subcircuit for sky130_fd_sc_hd__fill_1 abstract view
.subckt sky130_fd_sc_hd__fill_1 VGND VNB VPB VPWR
.ends

* Black-box entry subcircuit for sky130_fd_sc_hd__mux2_1 abstract view
.subckt sky130_fd_sc_hd__mux2_1 A0 A1 S VGND VNB VPB VPWR X
.ends

* Black-box entry subcircuit for sky130_fd_sc_hd__diode_2 abstract view
.subckt sky130_fd_sc_hd__diode_2 DIODE VGND VNB VPB VPWR
.ends

* Black-box entry subcircuit for sky130_fd_sc_hd__a21oi_1 abstract view
.subckt sky130_fd_sc_hd__a21oi_1 A1 A2 B1 VGND VNB VPB VPWR Y
.ends

* Black-box entry subcircuit for sky130_fd_sc_hd__dfstp_1 abstract view
.subckt sky130_fd_sc_hd__dfstp_1 CLK D SET_B VGND VNB VPB VPWR Q
.ends

* Black-box entry subcircuit for sky130_fd_sc_hd__fill_2 abstract view
.subckt sky130_fd_sc_hd__fill_2 VGND VNB VPB VPWR
.ends

* Black-box entry subcircuit for sky130_fd_sc_hd__nand2_1 abstract view
.subckt sky130_fd_sc_hd__nand2_1 A B VGND VNB VPB VPWR Y
.ends

* Black-box entry subcircuit for sky130_ef_sc_hd__decap_12 abstract view
.subckt sky130_ef_sc_hd__decap_12 VGND VNB VPB VPWR
.ends

* Black-box entry subcircuit for sky130_fd_sc_hd__xnor2_1 abstract view
.subckt sky130_fd_sc_hd__xnor2_1 A B VGND VNB VPB VPWR Y
.ends

* Black-box entry subcircuit for sky130_fd_sc_hd__clkbuf_16 abstract view
.subckt sky130_fd_sc_hd__clkbuf_16 A VGND VNB VPB VPWR X
.ends

* Black-box entry subcircuit for sky130_fd_sc_hd__o2111ai_2 abstract view
.subckt sky130_fd_sc_hd__o2111ai_2 A1 A2 B1 C1 D1 VGND VNB VPB VPWR Y
.ends

* Black-box entry subcircuit for sky130_fd_sc_hd__nand2b_1 abstract view
.subckt sky130_fd_sc_hd__nand2b_1 A_N B VGND VNB VPB VPWR Y
.ends

* Black-box entry subcircuit for sky130_fd_sc_hd__o21ai_1 abstract view
.subckt sky130_fd_sc_hd__o21ai_1 A1 A2 B1 VGND VNB VPB VPWR Y
.ends

* Black-box entry subcircuit for sky130_fd_sc_hd__and3b_1 abstract view
.subckt sky130_fd_sc_hd__and3b_1 A_N B C VGND VNB VPB VPWR X
.ends

* Black-box entry subcircuit for sky130_fd_sc_hd__decap_6 abstract view
.subckt sky130_fd_sc_hd__decap_6 VGND VNB VPB VPWR
.ends

* Black-box entry subcircuit for sky130_fd_sc_hd__inv_2 abstract view
.subckt sky130_fd_sc_hd__inv_2 A VGND VNB VPB VPWR Y
.ends

* Black-box entry subcircuit for sky130_fd_sc_hd__inv_4 abstract view
.subckt sky130_fd_sc_hd__inv_4 A VGND VNB VPB VPWR Y
.ends

* Black-box entry subcircuit for sky130_fd_sc_hd__nand3b_1 abstract view
.subckt sky130_fd_sc_hd__nand3b_1 A_N B C VGND VNB VPB VPWR Y
.ends

* Black-box entry subcircuit for sky130_fd_sc_hd__a31o_1 abstract view
.subckt sky130_fd_sc_hd__a31o_1 A1 A2 A3 B1 VGND VNB VPB VPWR X
.ends

* Black-box entry subcircuit for sky130_fd_sc_hd__and2_1 abstract view
.subckt sky130_fd_sc_hd__and2_1 A B VGND VNB VPB VPWR X
.ends

* Black-box entry subcircuit for sky130_fd_sc_hd__buf_12 abstract view
.subckt sky130_fd_sc_hd__buf_12 A VGND VNB VPB VPWR X
.ends

* Black-box entry subcircuit for sky130_fd_sc_hd__a41oi_1 abstract view
.subckt sky130_fd_sc_hd__a41oi_1 A1 A2 A3 A4 B1 VGND VNB VPB VPWR Y
.ends

* Black-box entry subcircuit for sky130_fd_sc_hd__clkinv_4 abstract view
.subckt sky130_fd_sc_hd__clkinv_4 A VGND VNB VPB VPWR Y
.ends

* Black-box entry subcircuit for sky130_fd_sc_hd__nand2b_2 abstract view
.subckt sky130_fd_sc_hd__nand2b_2 A_N B VGND VNB VPB VPWR Y
.ends

* Black-box entry subcircuit for sky130_fd_sc_hd__nor3_1 abstract view
.subckt sky130_fd_sc_hd__nor3_1 A B C VGND VNB VPB VPWR Y
.ends

* Black-box entry subcircuit for sky130_fd_sc_hd__o31ai_2 abstract view
.subckt sky130_fd_sc_hd__o31ai_2 A1 A2 A3 B1 VGND VNB VPB VPWR Y
.ends

* Black-box entry subcircuit for sky130_fd_sc_hd__nor2_1 abstract view
.subckt sky130_fd_sc_hd__nor2_1 A B VGND VNB VPB VPWR Y
.ends

* Black-box entry subcircuit for sky130_fd_sc_hd__o211ai_4 abstract view
.subckt sky130_fd_sc_hd__o211ai_4 A1 A2 B1 C1 VGND VNB VPB VPWR Y
.ends

* Black-box entry subcircuit for sky130_fd_sc_hd__dfrtp_1 abstract view
.subckt sky130_fd_sc_hd__dfrtp_1 CLK D RESET_B VGND VNB VPB VPWR Q
.ends

* Black-box entry subcircuit for sky130_fd_sc_hd__o31a_1 abstract view
.subckt sky130_fd_sc_hd__o31a_1 A1 A2 A3 B1 VGND VNB VPB VPWR X
.ends

* Black-box entry subcircuit for sky130_fd_sc_hd__clkinv_2 abstract view
.subckt sky130_fd_sc_hd__clkinv_2 A VGND VNB VPB VPWR Y
.ends

* Black-box entry subcircuit for sky130_fd_sc_hd__o21bai_1 abstract view
.subckt sky130_fd_sc_hd__o21bai_1 A1 A2 B1_N VGND VNB VPB VPWR Y
.ends

* Black-box entry subcircuit for sky130_fd_sc_hd__buf_2 abstract view
.subckt sky130_fd_sc_hd__buf_2 A VGND VNB VPB VPWR X
.ends

* Black-box entry subcircuit for sky130_fd_sc_hd__nor3_2 abstract view
.subckt sky130_fd_sc_hd__nor3_2 A B C VGND VNB VPB VPWR Y
.ends

* Black-box entry subcircuit for sky130_fd_sc_hd__buf_4 abstract view
.subckt sky130_fd_sc_hd__buf_4 A VGND VNB VPB VPWR X
.ends

* Black-box entry subcircuit for sky130_fd_sc_hd__dfxtp_1 abstract view
.subckt sky130_fd_sc_hd__dfxtp_1 CLK D VGND VNB VPB VPWR Q
.ends

* Black-box entry subcircuit for sky130_fd_sc_hd__a21bo_1 abstract view
.subckt sky130_fd_sc_hd__a21bo_1 A1 A2 B1_N VGND VNB VPB VPWR X
.ends

* Black-box entry subcircuit for sky130_fd_sc_hd__clkbuf_2 abstract view
.subckt sky130_fd_sc_hd__clkbuf_2 A VGND VNB VPB VPWR X
.ends

* Black-box entry subcircuit for sky130_fd_sc_hd__dfrtp_2 abstract view
.subckt sky130_fd_sc_hd__dfrtp_2 CLK D RESET_B VGND VNB VPB VPWR Q
.ends

* Black-box entry subcircuit for sky130_fd_sc_hd__clkbuf_4 abstract view
.subckt sky130_fd_sc_hd__clkbuf_4 A VGND VNB VPB VPWR X
.ends

* Black-box entry subcircuit for sky130_fd_sc_hd__clkbuf_1 abstract view
.subckt sky130_fd_sc_hd__clkbuf_1 A VGND VNB VPB VPWR X
.ends

* Black-box entry subcircuit for sky130_fd_sc_hd__dfstp_2 abstract view
.subckt sky130_fd_sc_hd__dfstp_2 CLK D SET_B VGND VNB VPB VPWR Q
.ends

* Black-box entry subcircuit for sky130_fd_sc_hd__o21ba_2 abstract view
.subckt sky130_fd_sc_hd__o21ba_2 A1 A2 B1_N VGND VNB VPB VPWR X
.ends

* Black-box entry subcircuit for sky130_fd_sc_hd__and4bb_2 abstract view
.subckt sky130_fd_sc_hd__and4bb_2 A_N B_N C D VGND VNB VPB VPWR X
.ends

* Black-box entry subcircuit for sky130_fd_sc_hd__o22a_1 abstract view
.subckt sky130_fd_sc_hd__o22a_1 A1 A2 B1 B2 VGND VNB VPB VPWR X
.ends

* Black-box entry subcircuit for sky130_fd_sc_hd__o2111a_1 abstract view
.subckt sky130_fd_sc_hd__o2111a_1 A1 A2 B1 C1 D1 VGND VNB VPB VPWR X
.ends

* Black-box entry subcircuit for sky130_fd_sc_hd__o31ai_1 abstract view
.subckt sky130_fd_sc_hd__o31ai_1 A1 A2 A3 B1 VGND VNB VPB VPWR Y
.ends

* Black-box entry subcircuit for sky130_fd_sc_hd__nor4_1 abstract view
.subckt sky130_fd_sc_hd__nor4_1 A B C D VGND VNB VPB VPWR Y
.ends

* Black-box entry subcircuit for sky130_fd_sc_hd__o21ai_2 abstract view
.subckt sky130_fd_sc_hd__o21ai_2 A1 A2 B1 VGND VNB VPB VPWR Y
.ends

* Black-box entry subcircuit for sky130_fd_sc_hd__o21a_2 abstract view
.subckt sky130_fd_sc_hd__o21a_2 A1 A2 B1 VGND VNB VPB VPWR X
.ends

* Black-box entry subcircuit for sky130_fd_sc_hd__o21a_1 abstract view
.subckt sky130_fd_sc_hd__o21a_1 A1 A2 B1 VGND VNB VPB VPWR X
.ends

* Black-box entry subcircuit for sky130_fd_sc_hd__nand3_1 abstract view
.subckt sky130_fd_sc_hd__nand3_1 A B C VGND VNB VPB VPWR Y
.ends

* Black-box entry subcircuit for sky130_fd_sc_hd__nor2_2 abstract view
.subckt sky130_fd_sc_hd__nor2_2 A B VGND VNB VPB VPWR Y
.ends

* Black-box entry subcircuit for sky130_fd_sc_hd__a21o_1 abstract view
.subckt sky130_fd_sc_hd__a21o_1 A1 A2 B1 VGND VNB VPB VPWR X
.ends

* Black-box entry subcircuit for sky130_fd_sc_hd__dlygate4sd3_1 abstract view
.subckt sky130_fd_sc_hd__dlygate4sd3_1 A VGND VNB VPB VPWR X
.ends

* Black-box entry subcircuit for sky130_fd_sc_hd__nor3b_2 abstract view
.subckt sky130_fd_sc_hd__nor3b_2 A B C_N VGND VNB VPB VPWR Y
.ends

* Black-box entry subcircuit for sky130_fd_sc_hd__o2111ai_1 abstract view
.subckt sky130_fd_sc_hd__o2111ai_1 A1 A2 B1 C1 D1 VGND VNB VPB VPWR Y
.ends

* Black-box entry subcircuit for sky130_fd_sc_hd__dfrtp_4 abstract view
.subckt sky130_fd_sc_hd__dfrtp_4 CLK D RESET_B VGND VNB VPB VPWR Q
.ends

* Black-box entry subcircuit for sky130_fd_sc_hd__a2bb2o_1 abstract view
.subckt sky130_fd_sc_hd__a2bb2o_1 A1_N A2_N B1 B2 VGND VNB VPB VPWR X
.ends

* Black-box entry subcircuit for sky130_fd_sc_hd__conb_1 abstract view
.subckt sky130_fd_sc_hd__conb_1 VGND VNB VPB VPWR HI LO
.ends

* Black-box entry subcircuit for sky130_fd_sc_hd__nand4bb_1 abstract view
.subckt sky130_fd_sc_hd__nand4bb_1 A_N B_N C D VGND VNB VPB VPWR Y
.ends

.subckt caravel_clocking VGND VPWR core_clk ext_clk ext_clk_sel ext_reset pll_clk
+ pll_clk90 porb resetb resetb_sync sel2[0] sel2[1] sel2[2] sel[0] sel[1] sel[2] user_clk
XTAP_177 VGND VPWR sky130_fd_sc_hd__tapvpwrvgnd_1
XTAP_188 VGND VPWR sky130_fd_sc_hd__tapvpwrvgnd_1
XTAP_199 VGND VPWR sky130_fd_sc_hd__tapvpwrvgnd_1
XFILLER_22_144 VGND VGND VPWR VPWR sky130_fd_sc_hd__decap_4
XFILLER_22_166 VGND VGND VPWR VPWR sky130_fd_sc_hd__decap_3
XFILLER_13_122 VGND VGND VPWR VPWR sky130_fd_sc_hd__decap_8
X_432_ clknet_1_0__leaf_pll_clk _097_ net27 VGND VGND VPWR VPWR divider.odd_0.initial_begin\[2\]
+ sky130_fd_sc_hd__dfrtn_1
X_294_ _007_ _143_ _145_ net24 VGND VGND VPWR VPWR _092_ sky130_fd_sc_hd__o2bb2ai_1
XFILLER_13_155 VGND VGND VPWR VPWR sky130_fd_sc_hd__fill_1
XFILLER_13_177 VGND VGND VPWR VPWR sky130_fd_sc_hd__fill_1
X_363_ divider.odd_0.initial_begin\[2\] _014_ _003_ VGND VGND VPWR VPWR _097_ sky130_fd_sc_hd__mux2_1
XFILLER_8_170 VGND VGND VPWR VPWR sky130_fd_sc_hd__fill_1
XFILLER_8_192 VGND VGND VPWR VPWR sky130_fd_sc_hd__decap_3
XFILLER_6_118 VGND VGND VPWR VPWR sky130_fd_sc_hd__fill_1
XFILLER_10_147 VGND VGND VPWR VPWR sky130_fd_sc_hd__decap_8
XFILLER_10_158 VGND VGND VPWR VPWR sky130_fd_sc_hd__decap_8
XFILLER_12_54 VGND VGND VPWR VPWR sky130_fd_sc_hd__decap_8
XANTENNA__428__RESET_B net27 VGND VGND VPWR VPWR sky130_fd_sc_hd__diode_2
X_346_ _167_ divider2.odd_0.out_counter net22 VGND VGND VPWR VPWR _168_ sky130_fd_sc_hd__a21oi_1
X_415_ net39 net46 net26 VGND VGND VPWR VPWR reset_delay\[1\] sky130_fd_sc_hd__dfstp_1
XFILLER_5_151 VGND VGND VPWR VPWR sky130_fd_sc_hd__fill_2
X_277_ _130_ divider2.odd_0.counter2\[1\] VGND VGND VPWR VPWR _135_ sky130_fd_sc_hd__nand2_1
XFILLER_23_53 VGND VGND VPWR VPWR sky130_fd_sc_hd__fill_2
XFILLER_23_75 VGND VGND VPWR VPWR sky130_fd_sc_hd__decap_3
XFILLER_2_132 VGND VGND VPWR VPWR sky130_fd_sc_hd__fill_2
XFILLER_0_79 VGND VGND VPWR VPWR sky130_ef_sc_hd__decap_12
XFILLER_9_44 VGND VGND VPWR VPWR sky130_fd_sc_hd__decap_4
X_329_ divider2.odd_0.initial_begin\[1\] divider2.odd_0.initial_begin\[0\] VGND VGND
+ VPWR VPWR _061_ sky130_fd_sc_hd__xnor2_1
XFILLER_18_64 VGND VGND VPWR VPWR sky130_fd_sc_hd__fill_1
XFILLER_29_139 VGND VGND VPWR VPWR sky130_fd_sc_hd__fill_2
XFILLER_28_194 VGND VGND VPWR VPWR sky130_fd_sc_hd__fill_1
XTAP_326 VGND VPWR sky130_fd_sc_hd__tapvpwrvgnd_1
XTAP_304 VGND VPWR sky130_fd_sc_hd__tapvpwrvgnd_1
XTAP_315 VGND VPWR sky130_fd_sc_hd__tapvpwrvgnd_1
XFILLER_13_3 VGND VGND VPWR VPWR sky130_fd_sc_hd__fill_2
XFILLER_19_183 VGND VGND VPWR VPWR sky130_fd_sc_hd__fill_1
XFILLER_25_131 VGND VGND VPWR VPWR sky130_fd_sc_hd__decap_3
XFILLER_25_164 VGND VGND VPWR VPWR sky130_fd_sc_hd__fill_2
XFILLER_31_53 VGND VGND VPWR VPWR sky130_fd_sc_hd__fill_1
Xclkbuf_1_1__f__037_ clknet_0__037_ VGND VGND VPWR VPWR clknet_1_1__leaf__037_ sky130_fd_sc_hd__clkbuf_16
XFILLER_16_175 VGND VGND VPWR VPWR sky130_fd_sc_hd__decap_3
XTAP_123 VGND VPWR sky130_fd_sc_hd__tapvpwrvgnd_1
XTAP_112 VGND VPWR sky130_fd_sc_hd__tapvpwrvgnd_1
XTAP_101 VGND VPWR sky130_fd_sc_hd__tapvpwrvgnd_1
XTAP_134 VGND VPWR sky130_fd_sc_hd__tapvpwrvgnd_1
XTAP_145 VGND VPWR sky130_fd_sc_hd__tapvpwrvgnd_1
XTAP_156 VGND VPWR sky130_fd_sc_hd__tapvpwrvgnd_1
XTAP_167 VGND VPWR sky130_fd_sc_hd__tapvpwrvgnd_1
XTAP_178 VGND VPWR sky130_fd_sc_hd__tapvpwrvgnd_1
XTAP_189 VGND VPWR sky130_fd_sc_hd__tapvpwrvgnd_1
XFILLER_22_123 VGND VGND VPWR VPWR sky130_fd_sc_hd__decap_8
XFILLER_9_105 VGND VGND VPWR VPWR sky130_ef_sc_hd__decap_12
X_362_ divider.odd_0.initial_begin\[0\] _012_ _003_ VGND VGND VPWR VPWR _095_ sky130_fd_sc_hd__mux2_1
XFILLER_13_112 VGND VGND VPWR VPWR sky130_fd_sc_hd__decap_4
X_431_ net37 _096_ net26 VGND VGND VPWR VPWR divider.odd_0.initial_begin\[1\] sky130_fd_sc_hd__dfstp_1
XFILLER_26_64 VGND VGND VPWR VPWR sky130_fd_sc_hd__fill_1
X_293_ _140_ divider.odd_0.counter2\[1\] VGND VGND VPWR VPWR _145_ sky130_fd_sc_hd__nand2_1
XFILLER_3_79 VGND VGND VPWR VPWR sky130_fd_sc_hd__decap_8
XFILLER_3_24 VGND VGND VPWR VPWR sky130_fd_sc_hd__fill_2
XFILLER_12_11 VGND VGND VPWR VPWR sky130_fd_sc_hd__fill_2
XFILLER_12_66 VGND VGND VPWR VPWR sky130_fd_sc_hd__fill_1
X_345_ net14 net15 net16 divider2.odd_0.counter\[0\] _148_ VGND VGND VPWR VPWR _167_
+ sky130_fd_sc_hd__o2111ai_2
X_276_ net23 _130_ VGND VGND VPWR VPWR _134_ sky130_fd_sc_hd__nand2b_1
X_414_ net38 net13 net29 VGND VGND VPWR VPWR reset_delay\[0\] sky130_fd_sc_hd__dfstp_1
XFILLER_2_122 VGND VGND VPWR VPWR sky130_fd_sc_hd__fill_1
XFILLER_2_199 VGND VGND VPWR VPWR sky130_fd_sc_hd__fill_1
XFILLER_2_144 VGND VGND VPWR VPWR sky130_fd_sc_hd__decap_3
XFILLER_0_14 VGND VGND VPWR VPWR sky130_ef_sc_hd__decap_12
XFILLER_9_67 VGND VGND VPWR VPWR sky130_fd_sc_hd__decap_8
XFILLER_9_89 VGND VGND VPWR VPWR sky130_fd_sc_hd__fill_2
X_328_ net15 net16 VGND VGND VPWR VPWR _060_ sky130_fd_sc_hd__xnor2_1
XFILLER_18_87 VGND VGND VPWR VPWR sky130_fd_sc_hd__decap_4
XFILLER_20_11 VGND VGND VPWR VPWR sky130_fd_sc_hd__fill_2
XFILLER_20_66 VGND VGND VPWR VPWR sky130_fd_sc_hd__fill_1
XFILLER_20_88 VGND VGND VPWR VPWR sky130_fd_sc_hd__decap_3
XFILLER_29_31 VGND VGND VPWR VPWR sky130_fd_sc_hd__fill_2
XFILLER_29_53 VGND VGND VPWR VPWR sky130_fd_sc_hd__fill_2
XFILLER_29_75 VGND VGND VPWR VPWR sky130_fd_sc_hd__decap_3
XTAP_327 VGND VPWR sky130_fd_sc_hd__tapvpwrvgnd_1
XTAP_305 VGND VPWR sky130_fd_sc_hd__tapvpwrvgnd_1
XTAP_316 VGND VPWR sky130_fd_sc_hd__tapvpwrvgnd_1
XFILLER_25_143 VGND VGND VPWR VPWR sky130_fd_sc_hd__fill_2
XFILLER_25_154 VGND VGND VPWR VPWR sky130_fd_sc_hd__fill_2
XFILLER_25_198 VGND VGND VPWR VPWR sky130_fd_sc_hd__fill_2
XFILLER_15_77 VGND VGND VPWR VPWR sky130_fd_sc_hd__fill_1
XFILLER_16_165 VGND VGND VPWR VPWR sky130_fd_sc_hd__decap_4
XFILLER_31_157 VGND VGND VPWR VPWR sky130_fd_sc_hd__fill_1
XFILLER_31_179 VGND VGND VPWR VPWR sky130_fd_sc_hd__decap_3
XTAP_124 VGND VPWR sky130_fd_sc_hd__tapvpwrvgnd_1
XTAP_113 VGND VPWR sky130_fd_sc_hd__tapvpwrvgnd_1
XTAP_102 VGND VPWR sky130_fd_sc_hd__tapvpwrvgnd_1
XTAP_135 VGND VPWR sky130_fd_sc_hd__tapvpwrvgnd_1
XTAP_146 VGND VPWR sky130_fd_sc_hd__tapvpwrvgnd_1
XTAP_157 VGND VPWR sky130_fd_sc_hd__tapvpwrvgnd_1
XTAP_168 VGND VPWR sky130_fd_sc_hd__tapvpwrvgnd_1
XTAP_179 VGND VPWR sky130_fd_sc_hd__tapvpwrvgnd_1
X_361_ _124_ _142_ _178_ VGND VGND VPWR VPWR _093_ sky130_fd_sc_hd__o21ai_1
XFILLER_9_117 VGND VGND VPWR VPWR sky130_ef_sc_hd__decap_12
X_292_ _143_ _144_ _122_ _141_ VGND VGND VPWR VPWR _094_ sky130_fd_sc_hd__o2bb2ai_1
X_430_ clknet_1_0__leaf_pll_clk _095_ net27 VGND VGND VPWR VPWR divider.odd_0.initial_begin\[0\]
+ sky130_fd_sc_hd__dfrtn_1
XFILLER_13_157 VGND VGND VPWR VPWR sky130_fd_sc_hd__fill_1
XFILLER_26_87 VGND VGND VPWR VPWR sky130_fd_sc_hd__decap_4
XFILLER_10_116 VGND VGND VPWR VPWR sky130_fd_sc_hd__fill_1
XFILLER_6_109 VGND VGND VPWR VPWR sky130_fd_sc_hd__decap_8
X_275_ _127_ _128_ net23 VGND VGND VPWR VPWR _133_ sky130_fd_sc_hd__a21oi_1
X_344_ net2 net3 net4 VGND VGND VPWR VPWR divider.even_0.resetb sky130_fd_sc_hd__and3b_1
XFILLER_5_131 VGND VGND VPWR VPWR sky130_ef_sc_hd__decap_12
XFILLER_3_3 VGND VGND VPWR VPWR sky130_fd_sc_hd__decap_6
XFILLER_2_156 VGND VGND VPWR VPWR sky130_fd_sc_hd__fill_2
XFILLER_2_101 VGND VGND VPWR VPWR sky130_fd_sc_hd__fill_2
XFILLER_0_59 VGND VGND VPWR VPWR sky130_fd_sc_hd__decap_6
XFILLER_9_24 VGND VGND VPWR VPWR sky130_fd_sc_hd__fill_2
X_258_ _006_ VGND VGND VPWR VPWR _123_ sky130_fd_sc_hd__inv_2
XFILLER_9_79 VGND VGND VPWR VPWR sky130_fd_sc_hd__decap_6
X_327_ divider.even_0.counter\[1\] divider.even_0.counter\[0\] VGND VGND VPWR VPWR
+ _058_ sky130_fd_sc_hd__xnor2_1
XFILLER_18_11 VGND VGND VPWR VPWR sky130_fd_sc_hd__fill_2
XFILLER_18_66 VGND VGND VPWR VPWR sky130_fd_sc_hd__fill_1
XFILLER_28_196 VGND VGND VPWR VPWR sky130_fd_sc_hd__fill_1
XFILLER_6_58 VGND VGND VPWR VPWR sky130_fd_sc_hd__fill_2
XFILLER_6_14 VGND VGND VPWR VPWR sky130_fd_sc_hd__fill_1
XTAP_306 VGND VPWR sky130_fd_sc_hd__tapvpwrvgnd_1
XTAP_317 VGND VPWR sky130_fd_sc_hd__tapvpwrvgnd_1
XFILLER_19_196 VGND VGND VPWR VPWR sky130_fd_sc_hd__decap_4
XFILLER_25_122 VGND VGND VPWR VPWR sky130_fd_sc_hd__fill_2
XFILLER_25_177 VGND VGND VPWR VPWR sky130_fd_sc_hd__fill_2
XFILLER_31_33 VGND VGND VPWR VPWR sky130_fd_sc_hd__fill_2
XFILLER_16_133 VGND VGND VPWR VPWR sky130_fd_sc_hd__decap_4
XFILLER_16_144 VGND VGND VPWR VPWR sky130_ef_sc_hd__decap_12
XFILLER_31_103 VGND VGND VPWR VPWR sky130_fd_sc_hd__fill_1
XFILLER_31_136 VGND VGND VPWR VPWR sky130_fd_sc_hd__fill_2
XTAP_114 VGND VPWR sky130_fd_sc_hd__tapvpwrvgnd_1
XTAP_103 VGND VPWR sky130_fd_sc_hd__tapvpwrvgnd_1
XTAP_125 VGND VPWR sky130_fd_sc_hd__tapvpwrvgnd_1
XTAP_136 VGND VPWR sky130_fd_sc_hd__tapvpwrvgnd_1
XTAP_147 VGND VPWR sky130_fd_sc_hd__tapvpwrvgnd_1
XTAP_158 VGND VPWR sky130_fd_sc_hd__tapvpwrvgnd_1
XTAP_169 VGND VPWR sky130_fd_sc_hd__tapvpwrvgnd_1
X_408__8 clknet_1_1__leaf_net11 VGND VGND VPWR VPWR net39 sky130_fd_sc_hd__inv_4
XFILLER_26_11 VGND VGND VPWR VPWR sky130_fd_sc_hd__fill_2
XFILLER_26_33 VGND VGND VPWR VPWR sky130_fd_sc_hd__fill_2
XFILLER_26_66 VGND VGND VPWR VPWR sky130_fd_sc_hd__fill_1
X_360_ net24 _140_ divider.odd_0.counter2\[2\] VGND VGND VPWR VPWR _178_ sky130_fd_sc_hd__nand3b_1
X_291_ _136_ _122_ divider.odd_0.counter2\[0\] net24 VGND VGND VPWR VPWR _144_ sky130_fd_sc_hd__a31o_1
XFILLER_9_129 VGND VGND VPWR VPWR sky130_fd_sc_hd__fill_1
XFILLER_13_103 VGND VGND VPWR VPWR sky130_fd_sc_hd__fill_1
XFILLER_21_191 VGND VGND VPWR VPWR sky130_fd_sc_hd__decap_4
XFILLER_12_191 VGND VGND VPWR VPWR sky130_fd_sc_hd__decap_4
XFILLER_12_24 VGND VGND VPWR VPWR sky130_fd_sc_hd__fill_2
X_343_ divider2.even_0.counter\[1\] divider2.even_0.counter\[0\] VGND VGND VPWR VPWR
+ _078_ sky130_fd_sc_hd__xnor2_1
X_274_ _131_ _132_ VGND VGND VPWR VPWR _110_ sky130_fd_sc_hd__nand2_1
XFILLER_5_143 VGND VGND VPWR VPWR sky130_fd_sc_hd__decap_8
XFILLER_2_168 VGND VGND VPWR VPWR sky130_fd_sc_hd__fill_1
XFILLER_0_27 VGND VGND VPWR VPWR sky130_ef_sc_hd__decap_12
X_326_ _159_ _160_ VGND VGND VPWR VPWR _055_ sky130_fd_sc_hd__nand2b_1
XFILLER_29_3 VGND VGND VPWR VPWR sky130_fd_sc_hd__decap_8
X_309_ divider2.odd_0.out_counter2 divider2.odd_0.out_counter VGND VGND VPWR VPWR
+ _153_ sky130_fd_sc_hd__and2_1
Xclkbuf_0_divider.out divider.out VGND VGND VPWR VPWR clknet_0_divider.out sky130_fd_sc_hd__clkbuf_16
XFILLER_29_11 VGND VGND VPWR VPWR sky130_fd_sc_hd__fill_1
XFILLER_6_37 VGND VGND VPWR VPWR sky130_fd_sc_hd__fill_2
XFILLER_19_131 VGND VGND VPWR VPWR sky130_ef_sc_hd__decap_12
XTAP_307 VGND VPWR sky130_fd_sc_hd__tapvpwrvgnd_1
XTAP_318 VGND VPWR sky130_fd_sc_hd__tapvpwrvgnd_1
XFILLER_19_153 VGND VGND VPWR VPWR sky130_fd_sc_hd__decap_3
XFILLER_25_101 VGND VGND VPWR VPWR sky130_fd_sc_hd__decap_3
XFILLER_15_24 VGND VGND VPWR VPWR sky130_fd_sc_hd__fill_2
XFILLER_15_79 VGND VGND VPWR VPWR sky130_fd_sc_hd__fill_1
Xoutput12 net12 VGND VGND VPWR VPWR resetb_sync sky130_fd_sc_hd__buf_12
XFILLER_16_112 VGND VGND VPWR VPWR sky130_fd_sc_hd__decap_4
XFILLER_16_156 VGND VGND VPWR VPWR sky130_fd_sc_hd__decap_4
XFILLER_31_126 VGND VGND VPWR VPWR sky130_fd_sc_hd__decap_4
XANTENNA__268__A1 net14 VGND VGND VPWR VPWR sky130_fd_sc_hd__diode_2
XTAP_126 VGND VPWR sky130_fd_sc_hd__tapvpwrvgnd_1
XTAP_115 VGND VPWR sky130_fd_sc_hd__tapvpwrvgnd_1
XTAP_104 VGND VPWR sky130_fd_sc_hd__tapvpwrvgnd_1
XTAP_137 VGND VPWR sky130_fd_sc_hd__tapvpwrvgnd_1
XTAP_148 VGND VPWR sky130_fd_sc_hd__tapvpwrvgnd_1
XFILLER_11_3 VGND VGND VPWR VPWR sky130_ef_sc_hd__decap_12
XTAP_159 VGND VPWR sky130_fd_sc_hd__tapvpwrvgnd_1
XFILLER_22_104 VGND VGND VPWR VPWR sky130_ef_sc_hd__decap_12
XFILLER_22_148 VGND VGND VPWR VPWR sky130_fd_sc_hd__fill_1
XFILLER_7_91 VGND VGND VPWR VPWR sky130_fd_sc_hd__fill_2
XFILLER_30_170 VGND VGND VPWR VPWR sky130_fd_sc_hd__decap_3
XANTENNA_input8_A sel[0] VGND VGND VPWR VPWR sky130_fd_sc_hd__diode_2
XFILLER_26_56 VGND VGND VPWR VPWR sky130_fd_sc_hd__decap_3
X_290_ net24 _140_ VGND VGND VPWR VPWR _143_ sky130_fd_sc_hd__nand2b_1
XFILLER_21_181 VGND VGND VPWR VPWR sky130_fd_sc_hd__fill_1
XFILLER_3_38 VGND VGND VPWR VPWR sky130_ef_sc_hd__decap_12
XFILLER_3_27 VGND VGND VPWR VPWR sky130_fd_sc_hd__fill_2
XFILLER_8_141 VGND VGND VPWR VPWR sky130_fd_sc_hd__fill_2
XFILLER_8_196 VGND VGND VPWR VPWR sky130_fd_sc_hd__decap_4
XFILLER_12_170 VGND VGND VPWR VPWR sky130_fd_sc_hd__fill_1
XFILLER_10_118 VGND VGND VPWR VPWR sky130_ef_sc_hd__decap_12
XFILLER_12_14 VGND VGND VPWR VPWR sky130_fd_sc_hd__fill_1
Xclkbuf_0_pll_clk pll_clk VGND VGND VPWR VPWR clknet_0_pll_clk sky130_fd_sc_hd__clkbuf_16
X_342_ _165_ _166_ VGND VGND VPWR VPWR _075_ sky130_fd_sc_hd__nand2b_1
XFILLER_5_155 VGND VGND VPWR VPWR sky130_fd_sc_hd__fill_1
X_273_ _034_ _127_ _128_ _121_ net23 VGND VGND VPWR VPWR _132_ sky130_fd_sc_hd__a41oi_1
XFILLER_5_199 VGND VGND VPWR VPWR sky130_fd_sc_hd__fill_1
XANTENNA__331__B1 net14 VGND VGND VPWR VPWR sky130_fd_sc_hd__diode_2
XFILLER_4_92 VGND VGND VPWR VPWR sky130_fd_sc_hd__decap_8
XFILLER_23_79 VGND VGND VPWR VPWR sky130_fd_sc_hd__fill_1
XFILLER_2_114 VGND VGND VPWR VPWR sky130_fd_sc_hd__decap_3
X_325_ divider.odd_0.counter\[1\] divider.odd_0.counter\[0\] divider.odd_0.counter\[2\]
+ VGND VGND VPWR VPWR _160_ sky130_fd_sc_hd__o21ai_1
X_256_ reset_delay\[0\] VGND VGND VPWR VPWR net12 sky130_fd_sc_hd__clkinv_4
XANTENNA_fanout29_A net30 VGND VGND VPWR VPWR sky130_fd_sc_hd__diode_2
X_239_ _073_ net15 _035_ VGND VGND VPWR VPWR _074_ sky130_fd_sc_hd__mux2_1
X_308_ net17 _038_ VGND VGND VPWR VPWR _152_ sky130_fd_sc_hd__nand2b_2
XFILLER_20_14 VGND VGND VPWR VPWR sky130_fd_sc_hd__fill_1
XFILLER_20_36 VGND VGND VPWR VPWR sky130_fd_sc_hd__decap_3
XFILLER_20_69 VGND VGND VPWR VPWR sky130_fd_sc_hd__decap_4
XFILLER_28_165 VGND VGND VPWR VPWR sky130_fd_sc_hd__decap_4
XTAP_308 VGND VPWR sky130_fd_sc_hd__tapvpwrvgnd_1
XTAP_319 VGND VPWR sky130_fd_sc_hd__tapvpwrvgnd_1
XFILLER_19_143 VGND VGND VPWR VPWR sky130_fd_sc_hd__decap_6
XFILLER_25_157 VGND VGND VPWR VPWR sky130_fd_sc_hd__fill_1
XFILLER_31_24 VGND VGND VPWR VPWR sky130_fd_sc_hd__fill_2
XFILLER_31_79 VGND VGND VPWR VPWR sky130_fd_sc_hd__decap_4
XFILLER_31_105 VGND VGND VPWR VPWR sky130_fd_sc_hd__fill_1
XANTENNA__268__A2 net15 VGND VGND VPWR VPWR sky130_fd_sc_hd__diode_2
XTAP_127 VGND VPWR sky130_fd_sc_hd__tapvpwrvgnd_1
XTAP_116 VGND VPWR sky130_fd_sc_hd__tapvpwrvgnd_1
XTAP_105 VGND VPWR sky130_fd_sc_hd__tapvpwrvgnd_1
XTAP_138 VGND VPWR sky130_fd_sc_hd__tapvpwrvgnd_1
XTAP_149 VGND VPWR sky130_fd_sc_hd__tapvpwrvgnd_1
XFILLER_22_116 VGND VGND VPWR VPWR sky130_fd_sc_hd__fill_1
XFILLER_22_138 VGND VGND VPWR VPWR sky130_fd_sc_hd__decap_4
XFILLER_13_105 VGND VGND VPWR VPWR sky130_fd_sc_hd__fill_1
XFILLER_26_24 VGND VGND VPWR VPWR sky130_fd_sc_hd__fill_2
Xclkbuf_1_0__f_pll_clk90 clknet_0_pll_clk90 VGND VGND VPWR VPWR clknet_1_0__leaf_pll_clk90
+ sky130_fd_sc_hd__clkbuf_16
XFILLER_5_9 VGND VGND VPWR VPWR sky130_ef_sc_hd__decap_12
X_341_ divider2.odd_0.counter\[1\] divider2.odd_0.counter\[0\] divider2.odd_0.counter\[2\]
+ VGND VGND VPWR VPWR _166_ sky130_fd_sc_hd__o21ai_1
X_272_ _034_ _127_ _128_ _121_ VGND VGND VPWR VPWR _131_ sky130_fd_sc_hd__a31o_1
XFILLER_5_167 VGND VGND VPWR VPWR sky130_fd_sc_hd__decap_4
XFILLER_5_123 VGND VGND VPWR VPWR sky130_fd_sc_hd__decap_6
XFILLER_5_101 VGND VGND VPWR VPWR sky130_fd_sc_hd__decap_3
XFILLER_23_25 VGND VGND VPWR VPWR sky130_fd_sc_hd__fill_1
X_255_ net1 VGND VGND VPWR VPWR pll_clk_sel sky130_fd_sc_hd__clkinv_4
X_324_ divider.odd_0.counter\[1\] divider.odd_0.counter\[0\] divider.odd_0.counter\[2\]
+ VGND VGND VPWR VPWR _159_ sky130_fd_sc_hd__nor3_1
XFILLER_9_27 VGND VGND VPWR VPWR sky130_fd_sc_hd__fill_1
XFILLER_9_38 VGND VGND VPWR VPWR sky130_fd_sc_hd__decap_4
XFILLER_18_14 VGND VGND VPWR VPWR sky130_fd_sc_hd__decap_4
XFILLER_18_25 VGND VGND VPWR VPWR sky130_fd_sc_hd__fill_2
XFILLER_18_36 VGND VGND VPWR VPWR sky130_fd_sc_hd__decap_3
XFILLER_1_3 VGND VGND VPWR VPWR sky130_ef_sc_hd__decap_12
X_238_ _072_ net16 net22 VGND VGND VPWR VPWR _020_ sky130_fd_sc_hd__mux2_1
X_307_ _151_ _139_ _150_ _149_ VGND VGND VPWR VPWR divider.out sky130_fd_sc_hd__o31ai_2
XFILLER_24_90 VGND VGND VPWR VPWR sky130_fd_sc_hd__fill_1
XANTENNA__430__RESET_B net27 VGND VGND VPWR VPWR sky130_fd_sc_hd__diode_2
XFILLER_29_79 VGND VGND VPWR VPWR sky130_fd_sc_hd__decap_3
XFILLER_28_144 VGND VGND VPWR VPWR sky130_fd_sc_hd__fill_1
XFILLER_28_199 VGND VGND VPWR VPWR sky130_fd_sc_hd__fill_1
XFILLER_10_92 VGND VGND VPWR VPWR sky130_fd_sc_hd__fill_1
XTAP_309 VGND VPWR sky130_fd_sc_hd__tapvpwrvgnd_1
XFILLER_25_136 VGND VGND VPWR VPWR sky130_fd_sc_hd__fill_2
XTAP_128 VGND VPWR sky130_fd_sc_hd__tapvpwrvgnd_1
XTAP_117 VGND VPWR sky130_fd_sc_hd__tapvpwrvgnd_1
XTAP_106 VGND VPWR sky130_fd_sc_hd__tapvpwrvgnd_1
XTAP_139 VGND VPWR sky130_fd_sc_hd__tapvpwrvgnd_1
XPHY_0 VGND VGND VPWR VPWR sky130_fd_sc_hd__decap_3
XFILLER_15_191 VGND VGND VPWR VPWR sky130_fd_sc_hd__fill_1
XFILLER_30_194 VGND VGND VPWR VPWR sky130_fd_sc_hd__fill_1
XFILLER_26_14 VGND VGND VPWR VPWR sky130_fd_sc_hd__fill_1
XFILLER_21_183 VGND VGND VPWR VPWR sky130_fd_sc_hd__fill_1
XFILLER_3_18 VGND VGND VPWR VPWR sky130_fd_sc_hd__fill_2
XFILLER_12_38 VGND VGND VPWR VPWR sky130_fd_sc_hd__fill_1
X_340_ divider2.odd_0.counter\[1\] divider2.odd_0.counter\[0\] divider2.odd_0.counter\[2\]
+ VGND VGND VPWR VPWR _165_ sky130_fd_sc_hd__nor3_1
X_271_ _130_ VGND VGND VPWR VPWR _033_ sky130_fd_sc_hd__inv_2
XFILLER_5_157 VGND VGND VPWR VPWR sky130_fd_sc_hd__fill_1
X_469_ clknet_1_1__leaf_divider2.out net44 net29 VGND VGND VPWR VPWR divider2.even_0.N\[1\]
+ sky130_fd_sc_hd__dfstp_1
XFILLER_4_83 VGND VGND VPWR VPWR sky130_fd_sc_hd__decap_8
XFILLER_23_48 VGND VGND VPWR VPWR sky130_fd_sc_hd__decap_4
X_323_ divider.odd_0.counter\[1\] divider.odd_0.counter\[0\] VGND VGND VPWR VPWR _053_
+ sky130_fd_sc_hd__xnor2_1
X_254_ divider2.odd_0.counter\[0\] VGND VGND VPWR VPWR _071_ sky130_fd_sc_hd__clkinv_4
XFILLER_1_193 VGND VGND VPWR VPWR sky130_fd_sc_hd__fill_2
XANTENNA__240__A1 net15 VGND VGND VPWR VPWR sky130_fd_sc_hd__diode_2
XFILLER_18_48 VGND VGND VPWR VPWR sky130_ef_sc_hd__decap_12
XANTENNA__434__SET_B net27 VGND VGND VPWR VPWR sky130_fd_sc_hd__diode_2
X_306_ divider.odd_0.out_counter2 divider.odd_0.out_counter VGND VGND VPWR VPWR _151_
+ sky130_fd_sc_hd__nor2_1
X_237_ _071_ net16 _035_ VGND VGND VPWR VPWR _072_ sky130_fd_sc_hd__mux2_1
XFILLER_24_80 VGND VGND VPWR VPWR sky130_fd_sc_hd__fill_2
XFILLER_27_3 VGND VGND VPWR VPWR sky130_ef_sc_hd__decap_12
XFILLER_1_95 VGND VGND VPWR VPWR sky130_fd_sc_hd__decap_8
XFILLER_29_25 VGND VGND VPWR VPWR sky130_fd_sc_hd__fill_1
XFILLER_19_189 VGND VGND VPWR VPWR sky130_fd_sc_hd__fill_2
XFILLER_15_27 VGND VGND VPWR VPWR sky130_fd_sc_hd__fill_1
XFILLER_15_38 VGND VGND VPWR VPWR sky130_ef_sc_hd__decap_12
XFILLER_16_137 VGND VGND VPWR VPWR sky130_fd_sc_hd__fill_1
XFILLER_24_170 VGND VGND VPWR VPWR sky130_fd_sc_hd__decap_4
XTAP_129 VGND VPWR sky130_fd_sc_hd__tapvpwrvgnd_1
XTAP_118 VGND VPWR sky130_fd_sc_hd__tapvpwrvgnd_1
XTAP_107 VGND VPWR sky130_fd_sc_hd__tapvpwrvgnd_1
XPHY_1 VGND VGND VPWR VPWR sky130_fd_sc_hd__decap_3
XFILLER_22_118 VGND VGND VPWR VPWR sky130_fd_sc_hd__fill_1
XFILLER_21_195 VGND VGND VPWR VPWR sky130_fd_sc_hd__fill_1
XFILLER_8_144 VGND VGND VPWR VPWR sky130_fd_sc_hd__fill_1
XFILLER_12_184 VGND VGND VPWR VPWR sky130_fd_sc_hd__fill_1
XFILLER_16_92 VGND VGND VPWR VPWR sky130_fd_sc_hd__fill_1
XFILLER_12_28 VGND VGND VPWR VPWR sky130_fd_sc_hd__decap_3
XANTENNA_input6_A sel2[1] VGND VGND VPWR VPWR sky130_fd_sc_hd__diode_2
X_270_ divider2.even_0.N\[2\] net15 net17 _127_ VGND VGND VPWR VPWR _130_ sky130_fd_sc_hd__o211ai_4
X_468_ clknet_1_1__leaf_divider2.out net43 net29 VGND VGND VPWR VPWR divider2.even_0.N\[0\]
+ sky130_fd_sc_hd__dfrtp_1
X_399_ net22 divider2.odd_0.counter\[2\] _128_ _198_ VGND VGND VPWR VPWR _116_ sky130_fd_sc_hd__o31a_1
XFILLER_4_40 VGND VGND VPWR VPWR sky130_ef_sc_hd__decap_12
XFILLER_23_27 VGND VGND VPWR VPWR sky130_fd_sc_hd__fill_1
XTAP_290 VGND VPWR sky130_fd_sc_hd__tapvpwrvgnd_1
X_322_ _157_ _158_ VGND VGND VPWR VPWR _049_ sky130_fd_sc_hd__nand2b_1
X_253_ divider2.odd_0.counter2\[0\] VGND VGND VPWR VPWR _065_ sky130_fd_sc_hd__clkinv_2
XFILLER_1_183 VGND VGND VPWR VPWR sky130_fd_sc_hd__fill_1
X_305_ divider.odd_0.out_counter2 divider.odd_0.out_counter VGND VGND VPWR VPWR _150_
+ sky130_fd_sc_hd__and2_1
XFILLER_24_92 VGND VGND VPWR VPWR sky130_fd_sc_hd__fill_1
X_236_ _070_ net14 net23 VGND VGND VPWR VPWR _019_ sky130_fd_sc_hd__mux2_1
XFILLER_1_63 VGND VGND VPWR VPWR sky130_fd_sc_hd__decap_6
XANTENNA__440__SET_B net30 VGND VGND VPWR VPWR sky130_fd_sc_hd__diode_2
XFILLER_28_113 VGND VGND VPWR VPWR sky130_fd_sc_hd__decap_4
XANTENNA_fanout27_A net30 VGND VGND VPWR VPWR sky130_fd_sc_hd__diode_2
XFILLER_19_157 VGND VGND VPWR VPWR sky130_fd_sc_hd__fill_1
XFILLER_19_179 VGND VGND VPWR VPWR sky130_fd_sc_hd__decap_3