* NGSPICE file created from caravel_clocking.ext - technology: sky130A

* Black-box entry subcircuit for sky130_fd_sc_hd__inv_2 abstract view
.subckt sky130_fd_sc_hd__inv_2 A VGND VNB VPB VPWR Y
.ends

* Black-box entry subcircuit for sky130_fd_sc_hd__xnor2_1 abstract view
.subckt sky130_fd_sc_hd__xnor2_1 A B VGND VNB VPB VPWR Y
.ends

* Black-box entry subcircuit for sky130_fd_sc_hd__dfrtp_4 abstract view
.subckt sky130_fd_sc_hd__dfrtp_4 CLK D RESET_B VGND VNB VPB VPWR Q
.ends

* Black-box entry subcircuit for sky130_fd_sc_hd__decap_8 abstract view
.subckt sky130_fd_sc_hd__decap_8 VGND VNB VPB VPWR
.ends

* Black-box entry subcircuit for sky130_fd_sc_hd__fill_1 abstract view
.subckt sky130_fd_sc_hd__fill_1 VGND VNB VPB VPWR
.ends

* Black-box entry subcircuit for sky130_fd_sc_hd__dfxtp_1 abstract view
.subckt sky130_fd_sc_hd__dfxtp_1 CLK D VGND VNB VPB VPWR Q
.ends

* Black-box entry subcircuit for sky130_fd_sc_hd__decap_6 abstract view
.subckt sky130_fd_sc_hd__decap_6 VGND VNB VPB VPWR
.ends

* Black-box entry subcircuit for sky130_fd_sc_hd__o21a_1 abstract view
.subckt sky130_fd_sc_hd__o21a_1 A1 A2 B1 VGND VNB VPB VPWR X
.ends

* Black-box entry subcircuit for sky130_fd_sc_hd__decap_4 abstract view
.subckt sky130_fd_sc_hd__decap_4 VGND VNB VPB VPWR
.ends

* Black-box entry subcircuit for sky130_fd_sc_hd__clkbuf_2 abstract view
.subckt sky130_fd_sc_hd__clkbuf_2 A VGND VNB VPB VPWR X
.ends

* Black-box entry subcircuit for sky130_fd_sc_hd__decap_12 abstract view
.subckt sky130_fd_sc_hd__decap_12 VGND VNB VPB VPWR
.ends

* Black-box entry subcircuit for sky130_fd_sc_hd__tapvpwrvgnd_1 abstract view
.subckt sky130_fd_sc_hd__tapvpwrvgnd_1 VGND VPWR
.ends

* Black-box entry subcircuit for sky130_fd_sc_hd__fill_2 abstract view
.subckt sky130_fd_sc_hd__fill_2 VGND VNB VPB VPWR
.ends

* Black-box entry subcircuit for sky130_fd_sc_hd__nor2_1 abstract view
.subckt sky130_fd_sc_hd__nor2_1 A B VGND VNB VPB VPWR Y
.ends

* Black-box entry subcircuit for sky130_fd_sc_hd__clkinv_2 abstract view
.subckt sky130_fd_sc_hd__clkinv_2 A VGND VNB VPB VPWR Y
.ends

* Black-box entry subcircuit for sky130_fd_sc_hd__dfstp_4 abstract view
.subckt sky130_fd_sc_hd__dfstp_4 CLK D SET_B VGND VNB VPB VPWR Q
.ends

* Black-box entry subcircuit for sky130_fd_sc_hd__decap_3 abstract view
.subckt sky130_fd_sc_hd__decap_3 VGND VNB VPB VPWR
.ends

* Black-box entry subcircuit for sky130_fd_sc_hd__nand3_1 abstract view
.subckt sky130_fd_sc_hd__nand3_1 A B C VGND VNB VPB VPWR Y
.ends

* Black-box entry subcircuit for sky130_fd_sc_hd__dlymetal6s2s_1 abstract view
.subckt sky130_fd_sc_hd__dlymetal6s2s_1 A VGND VNB VPB VPWR X
.ends

* Black-box entry subcircuit for sky130_fd_sc_hd__o21ai_1 abstract view
.subckt sky130_fd_sc_hd__o21ai_1 A1 A2 B1 VGND VNB VPB VPWR Y
.ends

* Black-box entry subcircuit for sky130_fd_sc_hd__clkbuf_1 abstract view
.subckt sky130_fd_sc_hd__clkbuf_1 A VGND VNB VPB VPWR X
.ends

* Black-box entry subcircuit for sky130_fd_sc_hd__a21bo_1 abstract view
.subckt sky130_fd_sc_hd__a21bo_1 A1 A2 B1_N VGND VNB VPB VPWR X
.ends

* Black-box entry subcircuit for sky130_fd_sc_hd__xor2_1 abstract view
.subckt sky130_fd_sc_hd__xor2_1 A B VGND VNB VPB VPWR X
.ends

* Black-box entry subcircuit for sky130_fd_sc_hd__buf_1 abstract view
.subckt sky130_fd_sc_hd__buf_1 A VGND VNB VPB VPWR X
.ends

* Black-box entry subcircuit for sky130_fd_sc_hd__mux2_1 abstract view
.subckt sky130_fd_sc_hd__mux2_1 A0 A1 S VGND VNB VPB VPWR X
.ends

* Black-box entry subcircuit for sky130_fd_sc_hd__nand2_1 abstract view
.subckt sky130_fd_sc_hd__nand2_1 A B VGND VNB VPB VPWR Y
.ends

* Black-box entry subcircuit for sky130_fd_sc_hd__and2_1 abstract view
.subckt sky130_fd_sc_hd__and2_1 A B VGND VNB VPB VPWR X
.ends

* Black-box entry subcircuit for sky130_fd_sc_hd__buf_2 abstract view
.subckt sky130_fd_sc_hd__buf_2 A VGND VNB VPB VPWR X
.ends

* Black-box entry subcircuit for sky130_fd_sc_hd__mux2_2 abstract view
.subckt sky130_fd_sc_hd__mux2_2 A0 A1 S VGND VNB VPB VPWR X
.ends

* Black-box entry subcircuit for sky130_fd_sc_hd__clkbuf_16 abstract view
.subckt sky130_fd_sc_hd__clkbuf_16 A VGND VNB VPB VPWR X
.ends

* Black-box entry subcircuit for sky130_fd_sc_hd__o21bai_1 abstract view
.subckt sky130_fd_sc_hd__o21bai_1 A1 A2 B1_N VGND VNB VPB VPWR Y
.ends

* Black-box entry subcircuit for sky130_fd_sc_hd__nor3b_2 abstract view
.subckt sky130_fd_sc_hd__nor3b_2 A B C_N VGND VNB VPB VPWR Y
.ends

* Black-box entry subcircuit for sky130_fd_sc_hd__nand3b_1 abstract view
.subckt sky130_fd_sc_hd__nand3b_1 A_N B C VGND VNB VPB VPWR Y
.ends

* Black-box entry subcircuit for sky130_fd_sc_hd__o211ai_1 abstract view
.subckt sky130_fd_sc_hd__o211ai_1 A1 A2 B1 C1 VGND VNB VPB VPWR Y
.ends

* Black-box entry subcircuit for sky130_fd_sc_hd__or2b_1 abstract view
.subckt sky130_fd_sc_hd__or2b_1 A B_N VGND VNB VPB VPWR X
.ends

* Black-box entry subcircuit for sky130_fd_sc_hd__a21o_1 abstract view
.subckt sky130_fd_sc_hd__a21o_1 A1 A2 B1 VGND VNB VPB VPWR X
.ends

* Black-box entry subcircuit for sky130_fd_sc_hd__dfrtp_1 abstract view
.subckt sky130_fd_sc_hd__dfrtp_1 CLK D RESET_B VGND VNB VPB VPWR Q
.ends

* Black-box entry subcircuit for sky130_fd_sc_hd__dfstp_1 abstract view
.subckt sky130_fd_sc_hd__dfstp_1 CLK D SET_B VGND VNB VPB VPWR Q
.ends

* Black-box entry subcircuit for sky130_fd_sc_hd__nand2_2 abstract view
.subckt sky130_fd_sc_hd__nand2_2 A B VGND VNB VPB VPWR Y
.ends

* Black-box entry subcircuit for sky130_fd_sc_hd__dfrtn_1 abstract view
.subckt sky130_fd_sc_hd__dfrtn_1 CLK_N D RESET_B VGND VNB VPB VPWR Q
.ends

* Black-box entry subcircuit for sky130_fd_sc_hd__and2b_1 abstract view
.subckt sky130_fd_sc_hd__and2b_1 A_N B VGND VNB VPB VPWR X
.ends

* Black-box entry subcircuit for sky130_fd_sc_hd__dfrtp_2 abstract view
.subckt sky130_fd_sc_hd__dfrtp_2 CLK D RESET_B VGND VNB VPB VPWR Q
.ends

* Black-box entry subcircuit for sky130_fd_sc_hd__o2bb2ai_1 abstract view
.subckt sky130_fd_sc_hd__o2bb2ai_1 A1_N A2_N B1 B2 VGND VNB VPB VPWR Y
.ends

* Black-box entry subcircuit for sky130_fd_sc_hd__buf_6 abstract view
.subckt sky130_fd_sc_hd__buf_6 A VGND VNB VPB VPWR X
.ends

* Black-box entry subcircuit for sky130_fd_sc_hd__nor3_1 abstract view
.subckt sky130_fd_sc_hd__nor3_1 A B C VGND VNB VPB VPWR Y
.ends

* Black-box entry subcircuit for sky130_fd_sc_hd__dfstp_2 abstract view
.subckt sky130_fd_sc_hd__dfstp_2 CLK D SET_B VGND VNB VPB VPWR Q
.ends

* Black-box entry subcircuit for sky130_fd_sc_hd__buf_12 abstract view
.subckt sky130_fd_sc_hd__buf_12 A VGND VNB VPB VPWR X
.ends

* Black-box entry subcircuit for sky130_fd_sc_hd__o2bb2ai_2 abstract view
.subckt sky130_fd_sc_hd__o2bb2ai_2 A1_N A2_N B1 B2 VGND VNB VPB VPWR Y
.ends

* Black-box entry subcircuit for sky130_fd_sc_hd__nor3b_1 abstract view
.subckt sky130_fd_sc_hd__nor3b_1 A B C_N VGND VNB VPB VPWR Y
.ends

* Black-box entry subcircuit for sky130_fd_sc_hd__clkdlybuf4s25_1 abstract view
.subckt sky130_fd_sc_hd__clkdlybuf4s25_1 A VGND VNB VPB VPWR X
.ends

* Black-box entry subcircuit for sky130_fd_sc_hd__conb_1 abstract view
.subckt sky130_fd_sc_hd__conb_1 VGND VNB VPB VPWR HI LO
.ends

* Black-box entry subcircuit for sky130_fd_sc_hd__o21bai_2 abstract view
.subckt sky130_fd_sc_hd__o21bai_2 A1 A2 B1_N VGND VNB VPB VPWR Y
.ends

* Black-box entry subcircuit for sky130_fd_sc_hd__o21ai_2 abstract view
.subckt sky130_fd_sc_hd__o21ai_2 A1 A2 B1 VGND VNB VPB VPWR Y
.ends

* Black-box entry subcircuit for sky130_fd_sc_hd__and2b_2 abstract view
.subckt sky130_fd_sc_hd__and2b_2 A_N B VGND VNB VPB VPWR X
.ends

.subckt caravel_clocking VGND VPWR core_clk ext_clk ext_clk_sel ext_reset pll_clk
+ pll_clk90 resetb resetb_sync sel2[0] sel2[1] sel2[2] sel[0] sel[1] sel[2] user_clk
X_294_ _397_/X VGND VGND VPWR VPWR _294_/Y sky130_fd_sc_hd__inv_2
X_363_ _445_/Q _444_/Q VGND VGND VPWR VPWR _363_/Y sky130_fd_sc_hd__xnor2_1
X_432_ _351_/Y _432_/D _343_/S VGND VGND VPWR VPWR _432_/Q sky130_fd_sc_hd__dfrtp_4
XFILLER_9_159 VGND VGND VPWR VPWR sky130_fd_sc_hd__decap_8
X_346_ _346_/A VGND VGND VPWR VPWR _410_/S sky130_fd_sc_hd__inv_2
XFILLER_12_43 VGND VGND VPWR VPWR sky130_fd_sc_hd__fill_1
X_415_ _411_/A1 _431_/Q VGND VGND VPWR VPWR _415_/Q sky130_fd_sc_hd__dfxtp_1
XFILLER_6_107 VGND VGND VPWR VPWR sky130_fd_sc_hd__decap_6
X_277_ _454_/Q VGND VGND VPWR VPWR _279_/B sky130_fd_sc_hd__inv_2
XFILLER_5_162 VGND VGND VPWR VPWR sky130_fd_sc_hd__decap_6
X_329_ _325_/Y _328_/Y _286_/Y VGND VGND VPWR VPWR _443_/D sky130_fd_sc_hd__o21a_1
XFILLER_0_57 VGND VGND VPWR VPWR sky130_fd_sc_hd__decap_4
XFILLER_9_55 VGND VGND VPWR VPWR sky130_fd_sc_hd__fill_1
XFILLER_9_77 VGND VGND VPWR VPWR sky130_fd_sc_hd__decap_4
Xclkbuf_1_1_0_pll_clk clkbuf_0_pll_clk/X VGND VGND VPWR VPWR _411_/A1 sky130_fd_sc_hd__clkbuf_2
XFILLER_13_3 VGND VGND VPWR VPWR sky130_fd_sc_hd__decap_12
XFILLER_15_43 VGND VGND VPWR VPWR sky130_fd_sc_hd__decap_4
XFILLER_16_197 VGND VGND VPWR VPWR sky130_fd_sc_hd__decap_4
XTAP_112 VGND VPWR sky130_fd_sc_hd__tapvpwrvgnd_1
XTAP_101 VGND VPWR sky130_fd_sc_hd__tapvpwrvgnd_1
XFILLER_13_101 VGND VGND VPWR VPWR sky130_fd_sc_hd__fill_2
XFILLER_3_35 VGND VGND VPWR VPWR sky130_fd_sc_hd__fill_2
X_293_ _449_/Q _448_/Q VGND VGND VPWR VPWR _293_/Y sky130_fd_sc_hd__nor2_1
X_362_ _444_/Q VGND VGND VPWR VPWR _362_/Y sky130_fd_sc_hd__clkinv_2
X_431_ _351_/Y _431_/D _343_/S VGND VGND VPWR VPWR _431_/Q sky130_fd_sc_hd__dfstp_4
XFILLER_12_11 VGND VGND VPWR VPWR sky130_fd_sc_hd__decap_3
XFILLER_10_137 VGND VGND VPWR VPWR sky130_fd_sc_hd__decap_3
X_276_ _276_/A _276_/B _451_/Q VGND VGND VPWR VPWR _345_/A sky130_fd_sc_hd__nand3_1
X_345_ _345_/A VGND VGND VPWR VPWR _404_/S sky130_fd_sc_hd__inv_2
X_414_ _411_/A1 _430_/Q VGND VGND VPWR VPWR _414_/Q sky130_fd_sc_hd__dfxtp_1
X_259_ _266_/A VGND VGND VPWR VPWR _263_/A sky130_fd_sc_hd__dlymetal6s2s_1
XFILLER_2_100 VGND VGND VPWR VPWR sky130_fd_sc_hd__decap_8
XFILLER_2_133 VGND VGND VPWR VPWR sky130_fd_sc_hd__decap_3
X_328_ _326_/Y _327_/X _279_/C VGND VGND VPWR VPWR _328_/Y sky130_fd_sc_hd__o21ai_1
XFILLER_18_43 VGND VGND VPWR VPWR sky130_fd_sc_hd__decap_3
Xoutput10 _393_/X VGND VGND VPWR VPWR core_clk sky130_fd_sc_hd__clkbuf_1
XTAP_113 VGND VPWR sky130_fd_sc_hd__tapvpwrvgnd_1
XTAP_102 VGND VPWR sky130_fd_sc_hd__tapvpwrvgnd_1
XFILLER_13_113 VGND VGND VPWR VPWR sky130_fd_sc_hd__fill_2
X_292_ _405_/X _286_/Y _291_/Y VGND VGND VPWR VPWR _451_/D sky130_fd_sc_hd__a21bo_1
X_334__6 _453_/CLK VGND VGND VPWR VPWR _441_/CLK sky130_fd_sc_hd__inv_2
X_361_ _453_/Q _361_/B VGND VGND VPWR VPWR _361_/X sky130_fd_sc_hd__xor2_1
X_430_ _351_/Y _430_/D _343_/S VGND VGND VPWR VPWR _430_/Q sky130_fd_sc_hd__dfrtp_4
X_344_ _344_/A VGND VGND VPWR VPWR _420_/D sky130_fd_sc_hd__buf_1
X_413_ _455_/Q _413_/A1 _413_/S VGND VGND VPWR VPWR _413_/X sky130_fd_sc_hd__mux2_1
X_275_ _452_/Q VGND VGND VPWR VPWR _276_/B sky130_fd_sc_hd__inv_2
XFILLER_0_15 VGND VGND VPWR VPWR sky130_fd_sc_hd__decap_8
XFILLER_2_156 VGND VGND VPWR VPWR sky130_fd_sc_hd__fill_1
XFILLER_3_3 VGND VGND VPWR VPWR sky130_fd_sc_hd__decap_12
X_258_ _258_/A _258_/B VGND VGND VPWR VPWR _266_/A sky130_fd_sc_hd__nand2_1
X_327_ _432_/Q _416_/Q VGND VGND VPWR VPWR _327_/X sky130_fd_sc_hd__and2_1
XFILLER_9_57 VGND VGND VPWR VPWR sky130_fd_sc_hd__decap_4
XFILLER_6_58 VGND VGND VPWR VPWR sky130_fd_sc_hd__fill_1
XFILLER_19_141 VGND VGND VPWR VPWR sky130_fd_sc_hd__decap_3
Xoutput11 _375_/Y VGND VGND VPWR VPWR resetb_sync sky130_fd_sc_hd__buf_2
XFILLER_15_23 VGND VGND VPWR VPWR sky130_fd_sc_hd__fill_1
XTAP_114 VGND VPWR sky130_fd_sc_hd__tapvpwrvgnd_1
XTAP_103 VGND VPWR sky130_fd_sc_hd__tapvpwrvgnd_1
X_291_ _291_/A _451_/Q _316_/C VGND VGND VPWR VPWR _291_/Y sky130_fd_sc_hd__nand3_1
X_360_ _452_/Q _451_/Q VGND VGND VPWR VPWR _361_/B sky130_fd_sc_hd__nor2_1
XFILLER_3_15 VGND VGND VPWR VPWR sky130_fd_sc_hd__decap_12
X_343_ hold1/A _343_/A1 _343_/S VGND VGND VPWR VPWR _344_/A sky130_fd_sc_hd__mux2_2
X_412_ _412_/A0 _426_/Q _425_/D VGND VGND VPWR VPWR _412_/X sky130_fd_sc_hd__mux2_1
X_274_ _453_/Q VGND VGND VPWR VPWR _276_/A sky130_fd_sc_hd__inv_2
X_257_ _257_/A _257_/B _257_/C VGND VGND VPWR VPWR _459_/D sky130_fd_sc_hd__nand3_1
X_326_ _432_/Q _416_/Q VGND VGND VPWR VPWR _326_/Y sky130_fd_sc_hd__nor2_1
XFILLER_18_56 VGND VGND VPWR VPWR sky130_fd_sc_hd__fill_2
X_309_ _397_/S _309_/B _406_/S VGND VGND VPWR VPWR _316_/A sky130_fd_sc_hd__nand3_1
XFILLER_6_37 VGND VGND VPWR VPWR sky130_fd_sc_hd__fill_2
Xoutput12 _394_/X VGND VGND VPWR VPWR user_clk sky130_fd_sc_hd__clkbuf_1
XTAP_115 VGND VPWR sky130_fd_sc_hd__tapvpwrvgnd_1
XTAP_104 VGND VPWR sky130_fd_sc_hd__tapvpwrvgnd_1
XFILLER_16_101 VGND VGND VPWR VPWR sky130_fd_sc_hd__fill_1
XFILLER_13_159 VGND VGND VPWR VPWR sky130_fd_sc_hd__decap_3
X_290_ _402_/X _286_/Y _289_/Y VGND VGND VPWR VPWR _452_/D sky130_fd_sc_hd__a21bo_1
XFILLER_3_27 VGND VGND VPWR VPWR sky130_fd_sc_hd__decap_8
XFILLER_8_141 VGND VGND VPWR VPWR sky130_fd_sc_hd__decap_12
Xclkbuf_0_pll_clk pll_clk VGND VGND VPWR VPWR clkbuf_0_pll_clk/X sky130_fd_sc_hd__clkbuf_16
XFILLER_10_129 VGND VGND VPWR VPWR sky130_fd_sc_hd__decap_8
X_273_ _273_/A _273_/B VGND VGND VPWR VPWR _455_/D sky130_fd_sc_hd__nand2_1
XFILLER_5_144 VGND VGND VPWR VPWR sky130_fd_sc_hd__fill_2
X_411_ _439_/Q _411_/A1 _411_/S VGND VGND VPWR VPWR _411_/X sky130_fd_sc_hd__mux2_1
X_342_ _439_/Q _342_/B VGND VGND VPWR VPWR _439_/D sky130_fd_sc_hd__xnor2_1
XFILLER_2_125 VGND VGND VPWR VPWR sky130_fd_sc_hd__decap_8
X_256_ _253_/Y _258_/A _250_/B VGND VGND VPWR VPWR _257_/B sky130_fd_sc_hd__o21bai_1
XFILLER_13_90 VGND VGND VPWR VPWR sky130_fd_sc_hd__decap_6
X_325_ _325_/A _325_/B _414_/Q VGND VGND VPWR VPWR _325_/Y sky130_fd_sc_hd__nand3_1
XFILLER_9_15 VGND VGND VPWR VPWR sky130_fd_sc_hd__decap_12
XFILLER_18_68 VGND VGND VPWR VPWR sky130_fd_sc_hd__decap_12
X_239_ _461_/Q VGND VGND VPWR VPWR _240_/B sky130_fd_sc_hd__inv_2
X_308_ _442_/Q _441_/Q _440_/Q VGND VGND VPWR VPWR _406_/S sky130_fd_sc_hd__nor3b_2
XFILLER_19_165 VGND VGND VPWR VPWR sky130_fd_sc_hd__decap_3
XFILLER_0_201 VGND VGND VPWR VPWR sky130_fd_sc_hd__fill_1
XTAP_116 VGND VPWR sky130_fd_sc_hd__tapvpwrvgnd_1
XTAP_105 VGND VPWR sky130_fd_sc_hd__tapvpwrvgnd_1
XFILLER_9_109 VGND VGND VPWR VPWR sky130_fd_sc_hd__decap_3
XFILLER_12_171 VGND VGND VPWR VPWR sky130_fd_sc_hd__decap_8
XFILLER_8_197 VGND VGND VPWR VPWR sky130_fd_sc_hd__decap_4
X_272_ _346_/A _272_/B _272_/C VGND VGND VPWR VPWR _273_/B sky130_fd_sc_hd__nand3_1
X_410_ _438_/Q _373_/Y _410_/S VGND VGND VPWR VPWR _410_/X sky130_fd_sc_hd__mux2_1
X_341_ _430_/Q _364_/A _444_/Q VGND VGND VPWR VPWR _342_/B sky130_fd_sc_hd__nand3b_1
XFILLER_5_134 VGND VGND VPWR VPWR sky130_fd_sc_hd__fill_1
X_255_ _437_/Q _438_/Q _436_/Q _254_/Y VGND VGND VPWR VPWR _258_/A sky130_fd_sc_hd__o211ai_1
X_324_ _415_/Q _431_/Q VGND VGND VPWR VPWR _325_/B sky130_fd_sc_hd__or2b_1
XFILLER_9_27 VGND VGND VPWR VPWR sky130_fd_sc_hd__decap_12
XFILLER_1_3 VGND VGND VPWR VPWR sky130_fd_sc_hd__decap_12
X_238_ _462_/Q VGND VGND VPWR VPWR _240_/A sky130_fd_sc_hd__inv_2
X_307_ _447_/Q VGND VGND VPWR VPWR _309_/B sky130_fd_sc_hd__inv_2
XFILLER_19_122 VGND VGND VPWR VPWR sky130_fd_sc_hd__decap_6
XFILLER_15_15 VGND VGND VPWR VPWR sky130_fd_sc_hd__decap_8
XTAP_106 VGND VPWR sky130_fd_sc_hd__tapvpwrvgnd_1
XPHY_0 VGND VGND VPWR VPWR sky130_fd_sc_hd__decap_3
XFILLER_13_139 VGND VGND VPWR VPWR sky130_fd_sc_hd__decap_12
X_271_ _346_/A _272_/B _272_/C VGND VGND VPWR VPWR _273_/A sky130_fd_sc_hd__a21o_1
X_340_ _446_/Q _445_/Q VGND VGND VPWR VPWR _364_/A sky130_fd_sc_hd__nor2_1
X_469_ _413_/A1 _469_/D _343_/S VGND VGND VPWR VPWR _469_/Q sky130_fd_sc_hd__dfrtp_1
XFILLER_14_201 VGND VGND VPWR VPWR sky130_fd_sc_hd__fill_1
XFILLER_13_70 VGND VGND VPWR VPWR sky130_fd_sc_hd__decap_12
X_254_ _462_/Q _461_/Q VGND VGND VPWR VPWR _254_/Y sky130_fd_sc_hd__nor2_1
XFILLER_2_116 VGND VGND VPWR VPWR sky130_fd_sc_hd__fill_2
X_323_ _431_/Q _415_/Q VGND VGND VPWR VPWR _325_/A sky130_fd_sc_hd__or2b_1
XFILLER_9_39 VGND VGND VPWR VPWR sky130_fd_sc_hd__decap_12
XFILLER_18_26 VGND VGND VPWR VPWR sky130_fd_sc_hd__fill_2
X_237_ _460_/Q _258_/B _390_/X VGND VGND VPWR VPWR _237_/Y sky130_fd_sc_hd__nand3b_1
X_306_ _306_/A _306_/B VGND VGND VPWR VPWR _397_/S sky130_fd_sc_hd__nor2_1
XFILLER_3_200 VGND VGND VPWR VPWR sky130_fd_sc_hd__fill_2
XFILLER_16_148 VGND VGND VPWR VPWR sky130_fd_sc_hd__decap_3
XTAP_107 VGND VPWR sky130_fd_sc_hd__tapvpwrvgnd_1
XFILLER_15_192 VGND VGND VPWR VPWR sky130_fd_sc_hd__decap_6
XPHY_1 VGND VGND VPWR VPWR sky130_fd_sc_hd__decap_3
XFILLER_16_81 VGND VGND VPWR VPWR sky130_fd_sc_hd__decap_3
XFILLER_12_195 VGND VGND VPWR VPWR sky130_fd_sc_hd__fill_1
XFILLER_12_39 VGND VGND VPWR VPWR sky130_fd_sc_hd__decap_4
X_270_ _455_/Q VGND VGND VPWR VPWR _272_/C sky130_fd_sc_hd__inv_2
XFILLER_5_169 VGND VGND VPWR VPWR sky130_fd_sc_hd__decap_4
X_468_ _413_/A1 _468_/D _343_/S VGND VGND VPWR VPWR _468_/Q sky130_fd_sc_hd__dfstp_1
X_399_ _398_/X _432_/Q _443_/Q VGND VGND VPWR VPWR _399_/X sky130_fd_sc_hd__mux2_1
XFILLER_2_139 VGND VGND VPWR VPWR sky130_fd_sc_hd__fill_1
X_322_ _322_/A VGND VGND VPWR VPWR _444_/D sky130_fd_sc_hd__clkbuf_1
X_253_ _253_/A _253_/B _456_/Q VGND VGND VPWR VPWR _253_/Y sky130_fd_sc_hd__nand3_1
XFILLER_13_82 VGND VGND VPWR VPWR sky130_fd_sc_hd__fill_1
X_236_ _467_/Q _234_/Y _235_/Y VGND VGND VPWR VPWR _236_/Y sky130_fd_sc_hd__o21bai_1
Xclkbuf_1_1_0_pll_clk90 clkbuf_0_pll_clk90/X VGND VGND VPWR VPWR _413_/A1 sky130_fd_sc_hd__clkbuf_2
XFILLER_1_74 VGND VGND VPWR VPWR sky130_fd_sc_hd__decap_4
XFILLER_10_50 VGND VGND VPWR VPWR sky130_fd_sc_hd__decap_12
X_219_ _465_/Q VGND VGND VPWR VPWR _221_/A sky130_fd_sc_hd__inv_2
XFILLER_18_190 VGND VGND VPWR VPWR sky130_fd_sc_hd__decap_3
XTAP_108 VGND VPWR sky130_fd_sc_hd__tapvpwrvgnd_1
XPHY_2 VGND VGND VPWR VPWR sky130_fd_sc_hd__decap_3
XFILLER_7_51 VGND VGND VPWR VPWR sky130_fd_sc_hd__fill_2
XFILLER_12_141 VGND VGND VPWR VPWR sky130_fd_sc_hd__decap_3
XFILLER_12_130 VGND VGND VPWR VPWR sky130_fd_sc_hd__decap_8
XFILLER_12_29 VGND VGND VPWR VPWR sky130_fd_sc_hd__fill_1
X_467_ _413_/A1 _467_/D _343_/S VGND VGND VPWR VPWR _467_/Q sky130_fd_sc_hd__dfrtp_4
X_398_ _361_/X _432_/Q _404_/S VGND VGND VPWR VPWR _398_/X sky130_fd_sc_hd__mux2_1
XFILLER_4_85 VGND VGND VPWR VPWR sky130_fd_sc_hd__decap_8
X_252_ _457_/Q VGND VGND VPWR VPWR _253_/B sky130_fd_sc_hd__inv_2
X_321_ _400_/X _444_/Q _430_/Q VGND VGND VPWR VPWR _322_/A sky130_fd_sc_hd__mux2_1
Xclkbuf_1_0_0_pll_clk90 clkbuf_0_pll_clk90/X VGND VGND VPWR VPWR _465_/CLK sky130_fd_sc_hd__clkbuf_2
X_235_ _390_/X VGND VGND VPWR VPWR _235_/Y sky130_fd_sc_hd__inv_2
X_304_ _294_/Y _448_/Q _296_/Y VGND VGND VPWR VPWR _448_/D sky130_fd_sc_hd__a21bo_1
XFILLER_1_64 VGND VGND VPWR VPWR sky130_fd_sc_hd__fill_1
XFILLER_1_31 VGND VGND VPWR VPWR sky130_fd_sc_hd__fill_1
X_242__1 _465_/CLK VGND VGND VPWR VPWR _461_/CLK sky130_fd_sc_hd__inv_2
XFILLER_10_62 VGND VGND VPWR VPWR sky130_fd_sc_hd__fill_1
XFILLER_19_169 VGND VGND VPWR VPWR sky130_fd_sc_hd__decap_6
X_218_ _210_/Y _214_/Y _217_/Y VGND VGND VPWR VPWR _467_/D sky130_fd_sc_hd__o21a_1
Xclkbuf_1_1_0_ext_clk clkbuf_0_ext_clk/X VGND VGND VPWR VPWR _412_/A0 sky130_fd_sc_hd__clkbuf_2
XTAP_109 VGND VPWR sky130_fd_sc_hd__tapvpwrvgnd_1
XFILLER_13_109 VGND VGND VPWR VPWR sky130_fd_sc_hd__decap_3
XPHY_3 VGND VGND VPWR VPWR sky130_fd_sc_hd__decap_3
XFILLER_16_50 VGND VGND VPWR VPWR sky130_fd_sc_hd__decap_8
XFILLER_12_153 VGND VGND VPWR VPWR sky130_fd_sc_hd__decap_3
XFILLER_12_197 VGND VGND VPWR VPWR sky130_fd_sc_hd__fill_2
Xclkbuf_1_0_0_pll_clk clkbuf_0_pll_clk/X VGND VGND VPWR VPWR _453_/CLK sky130_fd_sc_hd__clkbuf_2
X_466_ _413_/A1 _466_/D _343_/S VGND VGND VPWR VPWR _466_/Q sky130_fd_sc_hd__dfstp_1
X_397_ _286_/Y _443_/Q _397_/S VGND VGND VPWR VPWR _397_/X sky130_fd_sc_hd__mux2_1
XFILLER_2_108 VGND VGND VPWR VPWR sky130_fd_sc_hd__fill_1
XFILLER_4_75 VGND VGND VPWR VPWR sky130_fd_sc_hd__decap_4
XFILLER_4_97 VGND VGND VPWR VPWR sky130_fd_sc_hd__decap_12
X_251_ _458_/Q VGND VGND VPWR VPWR _253_/A sky130_fd_sc_hd__inv_2
X_320_ _320_/A VGND VGND VPWR VPWR _445_/D sky130_fd_sc_hd__clkbuf_1
X_449_ _449_/CLK _449_/D _343_/S VGND VGND VPWR VPWR _449_/Q sky130_fd_sc_hd__dfstp_1
X_234_ _461_/Q _460_/Q VGND VGND VPWR VPWR _234_/Y sky130_fd_sc_hd__nor2_1
XFILLER_1_54 VGND VGND VPWR VPWR sky130_fd_sc_hd__fill_2
X_303_ _299_/B _302_/X _295_/Y VGND VGND VPWR VPWR _449_/D sky130_fd_sc_hd__o21ai_1
XFILLER_19_83 VGND VGND VPWR VPWR sky130_fd_sc_hd__fill_1
XFILLER_19_72 VGND VGND VPWR VPWR sky130_fd_sc_hd__fill_1
XFILLER_19_50 VGND VGND VPWR VPWR sky130_fd_sc_hd__decap_6
X_217_ _247_/A _258_/B VGND VGND VPWR VPWR _217_/Y sky130_fd_sc_hd__nand2_2
XFILLER_10_85 VGND VGND VPWR VPWR sky130_fd_sc_hd__decap_3
XPHY_4 VGND VGND VPWR VPWR sky130_fd_sc_hd__decap_3
XFILLER_16_73 VGND VGND VPWR VPWR sky130_fd_sc_hd__decap_8
X_396_ _395_/X _438_/Q _467_/Q VGND VGND VPWR VPWR _396_/X sky130_fd_sc_hd__mux2_1
X_465_ _465_/CLK _465_/D _343_/S VGND VGND VPWR VPWR _465_/Q sky130_fd_sc_hd__dfrtp_1
XFILLER_4_172 VGND VGND VPWR VPWR sky130_fd_sc_hd__fill_1
X_250_ _390_/S _250_/B _408_/S VGND VGND VPWR VPWR _257_/A sky130_fd_sc_hd__nand3_1
XFILLER_13_41 VGND VGND VPWR VPWR sky130_fd_sc_hd__decap_8
X_305__5 _453_/CLK VGND VGND VPWR VPWR _447_/CLK sky130_fd_sc_hd__inv_2
X_379_ _368_/Y _436_/Q _391_/S VGND VGND VPWR VPWR _379_/X sky130_fd_sc_hd__mux2_1
XFILLER_1_175 VGND VGND VPWR VPWR sky130_fd_sc_hd__decap_8
X_448_ _453_/CLK _448_/D _343_/S VGND VGND VPWR VPWR _448_/Q sky130_fd_sc_hd__dfrtn_1
X_233_ _380_/X _217_/Y _232_/Y VGND VGND VPWR VPWR _463_/D sky130_fd_sc_hd__a21bo_1
X_302_ _448_/Q _397_/X VGND VGND VPWR VPWR _302_/X sky130_fd_sc_hd__and2b_1
XFILLER_6_201 VGND VGND VPWR VPWR sky130_fd_sc_hd__fill_1
XFILLER_19_138 VGND VGND VPWR VPWR sky130_fd_sc_hd__fill_2
XFILLER_18_182 VGND VGND VPWR VPWR sky130_fd_sc_hd__decap_8
X_216_ _467_/Q VGND VGND VPWR VPWR _258_/B sky130_fd_sc_hd__inv_2
XFILLER_15_141 VGND VGND VPWR VPWR sky130_fd_sc_hd__decap_3
XPHY_5 VGND VGND VPWR VPWR sky130_fd_sc_hd__decap_3
XFILLER_8_126 VGND VGND VPWR VPWR sky130_fd_sc_hd__decap_6
XFILLER_7_181 VGND VGND VPWR VPWR sky130_fd_sc_hd__decap_12
X_464_ _465_/CLK _464_/D _343_/S VGND VGND VPWR VPWR _464_/Q sky130_fd_sc_hd__dfstp_1
X_395_ _367_/X _438_/Q _408_/S VGND VGND VPWR VPWR _395_/X sky130_fd_sc_hd__mux2_1
XFILLER_13_31 VGND VGND VPWR VPWR sky130_fd_sc_hd__fill_1
XFILLER_1_165 VGND VGND VPWR VPWR sky130_fd_sc_hd__decap_3
X_447_ _447_/CLK _447_/D _343_/S VGND VGND VPWR VPWR _447_/Q sky130_fd_sc_hd__dfstp_1
X_232_ _232_/A _257_/C _463_/Q VGND VGND VPWR VPWR _232_/Y sky130_fd_sc_hd__nand3_1
XFILLER_19_128 VGND VGND VPWR VPWR sky130_fd_sc_hd__fill_1
X_215_ _437_/Q _438_/Q _436_/Q VGND VGND VPWR VPWR _247_/A sky130_fd_sc_hd__o21ai_1
XFILLER_15_164 VGND VGND VPWR VPWR sky130_fd_sc_hd__decap_4
XFILLER_15_153 VGND VGND VPWR VPWR sky130_fd_sc_hd__decap_3
XPHY_6 VGND VGND VPWR VPWR sky130_fd_sc_hd__decap_3
XFILLER_7_88 VGND VGND VPWR VPWR sky130_fd_sc_hd__decap_3
XFILLER_7_193 VGND VGND VPWR VPWR sky130_fd_sc_hd__decap_6
X_394_ _412_/X _354_/Y _425_/Q VGND VGND VPWR VPWR _394_/X sky130_fd_sc_hd__mux2_1
XFILLER_4_67 VGND VGND VPWR VPWR sky130_fd_sc_hd__decap_4
XFILLER_4_141 VGND VGND VPWR VPWR sky130_fd_sc_hd__decap_8
X_463_ _413_/A1 _463_/D _343_/S VGND VGND VPWR VPWR _463_/Q sky130_fd_sc_hd__dfrtp_2
XFILLER_8_3 VGND VGND VPWR VPWR sky130_fd_sc_hd__decap_12
X_446_ _411_/A1 _446_/D _343_/S VGND VGND VPWR VPWR _446_/Q sky130_fd_sc_hd__dfrtp_1
X_377_ _470_/Q _377_/B VGND VGND VPWR VPWR _470_/D sky130_fd_sc_hd__xor2_1
Xclkbuf_0_ext_clk ext_clk VGND VGND VPWR VPWR clkbuf_0_ext_clk/X sky130_fd_sc_hd__clkbuf_16
X_231_ _392_/X _217_/Y _230_/Y VGND VGND VPWR VPWR _464_/D sky130_fd_sc_hd__a21bo_1
X_300_ _450_/Q _295_/Y _296_/Y _306_/B VGND VGND VPWR VPWR _450_/D sky130_fd_sc_hd__o2bb2ai_1
XFILLER_1_46 VGND VGND VPWR VPWR sky130_fd_sc_hd__decap_8
X_429_ _351_/Y _429_/D _343_/S VGND VGND VPWR VPWR _432_/D sky130_fd_sc_hd__dfrtp_1
XFILLER_19_64 VGND VGND VPWR VPWR sky130_fd_sc_hd__decap_8
XTAP_90 VGND VPWR sky130_fd_sc_hd__tapvpwrvgnd_1
Xinput1 ext_clk_sel VGND VGND VPWR VPWR _374_/A sky130_fd_sc_hd__buf_6
XFILLER_18_151 VGND VGND VPWR VPWR sky130_fd_sc_hd__decap_8
X_214_ _211_/Y _212_/X _223_/C VGND VGND VPWR VPWR _214_/Y sky130_fd_sc_hd__o21ai_1
XFILLER_15_198 VGND VGND VPWR VPWR sky130_fd_sc_hd__fill_1
XPHY_7 VGND VGND VPWR VPWR sky130_fd_sc_hd__decap_3
XFILLER_7_67 VGND VGND VPWR VPWR sky130_fd_sc_hd__decap_12
XFILLER_12_179 VGND VGND VPWR VPWR sky130_fd_sc_hd__decap_3
XFILLER_12_102 VGND VGND VPWR VPWR sky130_fd_sc_hd__fill_1
XFILLER_8_139 VGND VGND VPWR VPWR sky130_fd_sc_hd__fill_1
XFILLER_7_150 VGND VGND VPWR VPWR sky130_fd_sc_hd__decap_6
X_393_ _412_/X _351_/Y _425_/Q VGND VGND VPWR VPWR _393_/X sky130_fd_sc_hd__mux2_1
X_462_ _465_/CLK _462_/D _343_/S VGND VGND VPWR VPWR _462_/Q sky130_fd_sc_hd__dfrtn_1
XFILLER_4_79 VGND VGND VPWR VPWR sky130_fd_sc_hd__fill_1
XFILLER_4_197 VGND VGND VPWR VPWR sky130_fd_sc_hd__fill_2
XFILLER_13_22 VGND VGND VPWR VPWR sky130_fd_sc_hd__decap_3
X_376_ _469_/Q _436_/Q _468_/Q VGND VGND VPWR VPWR _377_/B sky130_fd_sc_hd__nor3_1
X_445_ _411_/A1 _445_/D _343_/S VGND VGND VPWR VPWR _445_/Q sky130_fd_sc_hd__dfrtp_1
X_230_ _232_/A _257_/C _464_/Q VGND VGND VPWR VPWR _230_/Y sky130_fd_sc_hd__nand3_1
X_359_ _452_/Q _451_/Q VGND VGND VPWR VPWR _359_/Y sky130_fd_sc_hd__xnor2_1
XFILLER_1_36 VGND VGND VPWR VPWR sky130_fd_sc_hd__decap_4
X_428_ _351_/Y _428_/D _343_/S VGND VGND VPWR VPWR _431_/D sky130_fd_sc_hd__dfstp_1
Xinput2 ext_reset VGND VGND VPWR VPWR _375_/A sky130_fd_sc_hd__clkbuf_1
XTAP_91 VGND VPWR sky130_fd_sc_hd__tapvpwrvgnd_1
XFILLER_10_23 VGND VGND VPWR VPWR sky130_fd_sc_hd__fill_2
XTAP_80 VGND VPWR sky130_fd_sc_hd__tapvpwrvgnd_1
X_213_ _437_/Q _438_/Q _436_/Q VGND VGND VPWR VPWR _223_/C sky130_fd_sc_hd__o21a_1
XFILLER_15_133 VGND VGND VPWR VPWR sky130_fd_sc_hd__decap_8
XPHY_8 VGND VGND VPWR VPWR sky130_fd_sc_hd__decap_3
XFILLER_7_79 VGND VGND VPWR VPWR sky130_fd_sc_hd__decap_6
XFILLER_12_114 VGND VGND VPWR VPWR sky130_fd_sc_hd__decap_3
XFILLER_7_140 VGND VGND VPWR VPWR sky130_fd_sc_hd__decap_3
X_392_ _391_/X _437_/Q _467_/Q VGND VGND VPWR VPWR _392_/X sky130_fd_sc_hd__mux2_1
XFILLER_4_58 VGND VGND VPWR VPWR sky130_fd_sc_hd__decap_3
X_461_ _461_/CLK _461_/D _343_/S VGND VGND VPWR VPWR _461_/Q sky130_fd_sc_hd__dfstp_1
XFILLER_1_157 VGND VGND VPWR VPWR sky130_fd_sc_hd__decap_8
XFILLER_1_113 VGND VGND VPWR VPWR sky130_fd_sc_hd__fill_1
X_375_ _375_/A _421_/Q VGND VGND VPWR VPWR _375_/Y sky130_fd_sc_hd__nor2_1
X_444_ _453_/CLK _444_/D _343_/S VGND VGND VPWR VPWR _444_/Q sky130_fd_sc_hd__dfstp_2
X_358_ _451_/Q VGND VGND VPWR VPWR _358_/Y sky130_fd_sc_hd__clkinv_2
XFILLER_1_15 VGND VGND VPWR VPWR sky130_fd_sc_hd__decap_12
X_427_ _351_/Y _427_/D _343_/S VGND VGND VPWR VPWR _430_/D sky130_fd_sc_hd__dfrtp_1
Xinput3 resetb VGND VGND VPWR VPWR _343_/S sky130_fd_sc_hd__buf_12
XTAP_92 VGND VPWR sky130_fd_sc_hd__tapvpwrvgnd_1
X_289_ _291_/A _452_/Q _316_/C VGND VGND VPWR VPWR _289_/Y sky130_fd_sc_hd__nand3_1
XTAP_70 VGND VPWR sky130_fd_sc_hd__tapvpwrvgnd_1
XTAP_81 VGND VPWR sky130_fd_sc_hd__tapvpwrvgnd_1
XFILLER_19_109 VGND VGND VPWR VPWR sky130_fd_sc_hd__decap_3
XFILLER_19_11 VGND VGND VPWR VPWR sky130_fd_sc_hd__fill_1
X_212_ _419_/Q _438_/Q VGND VGND VPWR VPWR _212_/X sky130_fd_sc_hd__and2_1
XFILLER_18_197 VGND VGND VPWR VPWR sky130_fd_sc_hd__fill_2
XFILLER_2_91 VGND VGND VPWR VPWR sky130_fd_sc_hd__fill_1
XPHY_9 VGND VGND VPWR VPWR sky130_fd_sc_hd__decap_3
X_391_ _369_/Y _437_/Q _391_/S VGND VGND VPWR VPWR _391_/X sky130_fd_sc_hd__mux2_1
X_460_ _465_/CLK _460_/D _343_/S VGND VGND VPWR VPWR _460_/Q sky130_fd_sc_hd__dfrtn_1
XFILLER_4_37 VGND VGND VPWR VPWR sky130_fd_sc_hd__fill_2
X_443_ _411_/A1 _443_/D _343_/S VGND VGND VPWR VPWR _443_/Q sky130_fd_sc_hd__dfrtp_4
X_374_ _374_/A VGND VGND VPWR VPWR _424_/D sky130_fd_sc_hd__inv_2
XFILLER_0_191 VGND VGND VPWR VPWR sky130_fd_sc_hd__decap_4
XFILLER_1_27 VGND VGND VPWR VPWR sky130_fd_sc_hd__decap_4
XFILLER_6_3 VGND VGND VPWR VPWR sky130_fd_sc_hd__decap_4
X_426_ _411_/A1 hold1/X _343_/S VGND VGND VPWR VPWR _426_/Q sky130_fd_sc_hd__dfrtp_1
XTAP_93 VGND VPWR sky130_fd_sc_hd__tapvpwrvgnd_1
Xinput4 sel2[0] VGND VGND VPWR VPWR _433_/D sky130_fd_sc_hd__clkbuf_1
XTAP_82 VGND VPWR sky130_fd_sc_hd__tapvpwrvgnd_1
X_288_ _399_/X _286_/Y _287_/Y VGND VGND VPWR VPWR _453_/D sky130_fd_sc_hd__a21bo_1
X_357_ _442_/Q _357_/B VGND VGND VPWR VPWR _357_/X sky130_fd_sc_hd__xor2_1
XTAP_60 VGND VPWR sky130_fd_sc_hd__tapvpwrvgnd_1
XTAP_71 VGND VPWR sky130_fd_sc_hd__tapvpwrvgnd_1
X_211_ _419_/Q _438_/Q VGND VGND VPWR VPWR _211_/Y sky130_fd_sc_hd__nor2_1
X_409_ _408_/X _437_/Q _467_/Q VGND VGND VPWR VPWR _409_/X sky130_fd_sc_hd__mux2_1
XFILLER_2_70 VGND VGND VPWR VPWR sky130_fd_sc_hd__decap_12
XFILLER_7_15 VGND VGND VPWR VPWR sky130_fd_sc_hd__decap_12
XFILLER_12_138 VGND VGND VPWR VPWR sky130_fd_sc_hd__fill_2
X_390_ _217_/Y _467_/Q _390_/S VGND VGND VPWR VPWR _390_/X sky130_fd_sc_hd__mux2_1
XFILLER_8_80 VGND VGND VPWR VPWR sky130_fd_sc_hd__decap_4
XFILLER_4_112 VGND VGND VPWR VPWR sky130_fd_sc_hd__decap_12
X_373_ _469_/Q _468_/Q VGND VGND VPWR VPWR _373_/Y sky130_fd_sc_hd__xnor2_1
X_442_ _453_/CLK _442_/D _343_/S VGND VGND VPWR VPWR _442_/Q sky130_fd_sc_hd__dfrtn_1
XFILLER_1_126 VGND VGND VPWR VPWR sky130_fd_sc_hd__decap_6
X_425_ _411_/A1 _425_/D _343_/S VGND VGND VPWR VPWR _425_/Q sky130_fd_sc_hd__dfrtp_1
Xinput5 sel2[1] VGND VGND VPWR VPWR _434_/D sky130_fd_sc_hd__clkbuf_1
X_356_ _441_/Q _440_/Q VGND VGND VPWR VPWR _357_/B sky130_fd_sc_hd__nor2_1
X_287_ _291_/A _453_/Q _316_/C VGND VGND VPWR VPWR _287_/Y sky130_fd_sc_hd__nand3_1
XTAP_94 VGND VPWR sky130_fd_sc_hd__tapvpwrvgnd_1
XTAP_83 VGND VPWR sky130_fd_sc_hd__tapvpwrvgnd_1
XTAP_50 VGND VPWR sky130_fd_sc_hd__tapvpwrvgnd_1
XTAP_61 VGND VPWR sky130_fd_sc_hd__tapvpwrvgnd_1
XTAP_72 VGND VPWR sky130_fd_sc_hd__tapvpwrvgnd_1
XFILLER_10_15 VGND VGND VPWR VPWR sky130_fd_sc_hd__decap_8
XFILLER_18_133 VGND VGND VPWR VPWR sky130_fd_sc_hd__decap_6
XFILLER_18_100 VGND VGND VPWR VPWR sky130_fd_sc_hd__decap_4
X_408_ _365_/Y _437_/Q _408_/S VGND VGND VPWR VPWR _408_/X sky130_fd_sc_hd__mux2_1
X_210_ _210_/A _210_/B _417_/Q VGND VGND VPWR VPWR _210_/Y sky130_fd_sc_hd__nand3_1