* NGSPICE file created from caravel_clocking.ext - technology: sky130A

* Black-box entry subcircuit for sky130_fd_sc_hd__tapvpwrvgnd_1 abstract view
.subckt sky130_fd_sc_hd__tapvpwrvgnd_1 VGND VPWR
.ends

* Black-box entry subcircuit for sky130_fd_sc_hd__diode_2 abstract view
.subckt sky130_fd_sc_hd__diode_2 DIODE VGND VNB VPB VPWR
.ends

* Black-box entry subcircuit for sky130_fd_sc_hd__fill_2 abstract view
.subckt sky130_fd_sc_hd__fill_2 VGND VNB VPB VPWR
.ends

* Black-box entry subcircuit for sky130_fd_sc_hd__dfrtp_4 abstract view
.subckt sky130_fd_sc_hd__dfrtp_4 CLK D RESET_B VGND VNB VPB VPWR Q
.ends

* Black-box entry subcircuit for sky130_fd_sc_hd__inv_2 abstract view
.subckt sky130_fd_sc_hd__inv_2 A VGND VNB VPB VPWR Y
.ends

* Black-box entry subcircuit for sky130_fd_sc_hd__xnor2_1 abstract view
.subckt sky130_fd_sc_hd__xnor2_1 A B VGND VNB VPB VPWR Y
.ends

* Black-box entry subcircuit for sky130_fd_sc_hd__clkinv_4 abstract view
.subckt sky130_fd_sc_hd__clkinv_4 A VGND VNB VPB VPWR Y
.ends

* Black-box entry subcircuit for sky130_fd_sc_hd__decap_12 abstract view
.subckt sky130_fd_sc_hd__decap_12 VGND VNB VPB VPWR
.ends

* Black-box entry subcircuit for sky130_fd_sc_hd__decap_4 abstract view
.subckt sky130_fd_sc_hd__decap_4 VGND VNB VPB VPWR
.ends

* Black-box entry subcircuit for sky130_fd_sc_hd__dfxtp_1 abstract view
.subckt sky130_fd_sc_hd__dfxtp_1 CLK D VGND VNB VPB VPWR Q
.ends

* Black-box entry subcircuit for sky130_fd_sc_hd__clkbuf_2 abstract view
.subckt sky130_fd_sc_hd__clkbuf_2 A VGND VNB VPB VPWR X
.ends

* Black-box entry subcircuit for sky130_fd_sc_hd__decap_6 abstract view
.subckt sky130_fd_sc_hd__decap_6 VGND VNB VPB VPWR
.ends

* Black-box entry subcircuit for sky130_fd_sc_hd__decap_8 abstract view
.subckt sky130_fd_sc_hd__decap_8 VGND VNB VPB VPWR
.ends

* Black-box entry subcircuit for sky130_fd_sc_hd__nand2_1 abstract view
.subckt sky130_fd_sc_hd__nand2_1 A B VGND VNB VPB VPWR Y
.ends

* Black-box entry subcircuit for sky130_fd_sc_hd__fill_1 abstract view
.subckt sky130_fd_sc_hd__fill_1 VGND VNB VPB VPWR
.ends

* Black-box entry subcircuit for sky130_fd_sc_hd__inv_4 abstract view
.subckt sky130_fd_sc_hd__inv_4 A VGND VNB VPB VPWR Y
.ends

* Black-box entry subcircuit for sky130_fd_sc_hd__decap_3 abstract view
.subckt sky130_fd_sc_hd__decap_3 VGND VNB VPB VPWR
.ends

* Black-box entry subcircuit for sky130_fd_sc_hd__nand3b_1 abstract view
.subckt sky130_fd_sc_hd__nand3b_1 A_N B C VGND VNB VPB VPWR Y
.ends

* Black-box entry subcircuit for sky130_fd_sc_hd__clkinv_2 abstract view
.subckt sky130_fd_sc_hd__clkinv_2 A VGND VNB VPB VPWR Y
.ends

* Black-box entry subcircuit for sky130_fd_sc_hd__dfstp_4 abstract view
.subckt sky130_fd_sc_hd__dfstp_4 CLK D SET_B VGND VNB VPB VPWR Q
.ends

* Black-box entry subcircuit for sky130_fd_sc_hd__nand3_1 abstract view
.subckt sky130_fd_sc_hd__nand3_1 A B C VGND VNB VPB VPWR Y
.ends

* Black-box entry subcircuit for sky130_fd_sc_hd__clkbuf_1 abstract view
.subckt sky130_fd_sc_hd__clkbuf_1 A VGND VNB VPB VPWR X
.ends

* Black-box entry subcircuit for sky130_fd_sc_hd__o21bai_1 abstract view
.subckt sky130_fd_sc_hd__o21bai_1 A1 A2 B1_N VGND VNB VPB VPWR Y
.ends

* Black-box entry subcircuit for sky130_fd_sc_hd__xor2_1 abstract view
.subckt sky130_fd_sc_hd__xor2_1 A B VGND VNB VPB VPWR X
.ends

* Black-box entry subcircuit for sky130_fd_sc_hd__buf_1 abstract view
.subckt sky130_fd_sc_hd__buf_1 A VGND VNB VPB VPWR X
.ends

* Black-box entry subcircuit for sky130_fd_sc_hd__mux2_1 abstract view
.subckt sky130_fd_sc_hd__mux2_1 A0 A1 S VGND VNB VPB VPWR X
.ends

* Black-box entry subcircuit for sky130_fd_sc_hd__buf_2 abstract view
.subckt sky130_fd_sc_hd__buf_2 A VGND VNB VPB VPWR X
.ends

* Black-box entry subcircuit for sky130_fd_sc_hd__nor2_1 abstract view
.subckt sky130_fd_sc_hd__nor2_1 A B VGND VNB VPB VPWR Y
.ends

* Black-box entry subcircuit for sky130_fd_sc_hd__mux2_2 abstract view
.subckt sky130_fd_sc_hd__mux2_2 A0 A1 S VGND VNB VPB VPWR X
.ends

* Black-box entry subcircuit for sky130_fd_sc_hd__o21a_1 abstract view
.subckt sky130_fd_sc_hd__o21a_1 A1 A2 B1 VGND VNB VPB VPWR X
.ends

* Black-box entry subcircuit for sky130_fd_sc_hd__clkbuf_16 abstract view
.subckt sky130_fd_sc_hd__clkbuf_16 A VGND VNB VPB VPWR X
.ends

* Black-box entry subcircuit for sky130_fd_sc_hd__o21ai_1 abstract view
.subckt sky130_fd_sc_hd__o21ai_1 A1 A2 B1 VGND VNB VPB VPWR Y
.ends

* Black-box entry subcircuit for sky130_fd_sc_hd__a22o_1 abstract view
.subckt sky130_fd_sc_hd__a22o_1 A1 A2 B1 B2 VGND VNB VPB VPWR X
.ends

* Black-box entry subcircuit for sky130_fd_sc_hd__dfrtp_1 abstract view
.subckt sky130_fd_sc_hd__dfrtp_1 CLK D RESET_B VGND VNB VPB VPWR Q
.ends

* Black-box entry subcircuit for sky130_fd_sc_hd__and2_1 abstract view
.subckt sky130_fd_sc_hd__and2_1 A B VGND VNB VPB VPWR X
.ends

* Black-box entry subcircuit for sky130_fd_sc_hd__dfstp_1 abstract view
.subckt sky130_fd_sc_hd__dfstp_1 CLK D SET_B VGND VNB VPB VPWR Q
.ends

* Black-box entry subcircuit for sky130_fd_sc_hd__nor3b_4 abstract view
.subckt sky130_fd_sc_hd__nor3b_4 A B C_N VGND VNB VPB VPWR Y
.ends

* Black-box entry subcircuit for sky130_fd_sc_hd__mux2_4 abstract view
.subckt sky130_fd_sc_hd__mux2_4 A0 A1 S VGND VNB VPB VPWR X
.ends

* Black-box entry subcircuit for sky130_fd_sc_hd__o211ai_4 abstract view
.subckt sky130_fd_sc_hd__o211ai_4 A1 A2 B1 C1 VGND VNB VPB VPWR Y
.ends

* Black-box entry subcircuit for sky130_fd_sc_hd__or2b_1 abstract view
.subckt sky130_fd_sc_hd__or2b_1 A B_N VGND VNB VPB VPWR X
.ends

* Black-box entry subcircuit for sky130_fd_sc_hd__nor2_2 abstract view
.subckt sky130_fd_sc_hd__nor2_2 A B VGND VNB VPB VPWR Y
.ends

* Black-box entry subcircuit for sky130_fd_sc_hd__nand2_2 abstract view
.subckt sky130_fd_sc_hd__nand2_2 A B VGND VNB VPB VPWR Y
.ends

* Black-box entry subcircuit for sky130_fd_sc_hd__dfrtn_1 abstract view
.subckt sky130_fd_sc_hd__dfrtn_1 CLK_N D RESET_B VGND VNB VPB VPWR Q
.ends

* Black-box entry subcircuit for sky130_fd_sc_hd__nor3b_1 abstract view
.subckt sky130_fd_sc_hd__nor3b_1 A B C_N VGND VNB VPB VPWR Y
.ends

* Black-box entry subcircuit for sky130_fd_sc_hd__a21bo_1 abstract view
.subckt sky130_fd_sc_hd__a21bo_1 A1 A2 B1_N VGND VNB VPB VPWR X
.ends

* Black-box entry subcircuit for sky130_fd_sc_hd__dfrtp_2 abstract view
.subckt sky130_fd_sc_hd__dfrtp_2 CLK D RESET_B VGND VNB VPB VPWR Q
.ends

* Black-box entry subcircuit for sky130_fd_sc_hd__nor3_1 abstract view
.subckt sky130_fd_sc_hd__nor3_1 A B C VGND VNB VPB VPWR Y
.ends

* Black-box entry subcircuit for sky130_fd_sc_hd__dfstp_2 abstract view
.subckt sky130_fd_sc_hd__dfstp_2 CLK D SET_B VGND VNB VPB VPWR Q
.ends

* Black-box entry subcircuit for sky130_fd_sc_hd__buf_12 abstract view
.subckt sky130_fd_sc_hd__buf_12 A VGND VNB VPB VPWR X
.ends

* Black-box entry subcircuit for sky130_fd_sc_hd__o2bb2ai_2 abstract view
.subckt sky130_fd_sc_hd__o2bb2ai_2 A1_N A2_N B1 B2 VGND VNB VPB VPWR Y
.ends

* Black-box entry subcircuit for sky130_fd_sc_hd__a21o_1 abstract view
.subckt sky130_fd_sc_hd__a21o_1 A1 A2 B1 VGND VNB VPB VPWR X
.ends

* Black-box entry subcircuit for sky130_fd_sc_hd__conb_1 abstract view
.subckt sky130_fd_sc_hd__conb_1 VGND VNB VPB VPWR HI LO
.ends

* Black-box entry subcircuit for sky130_fd_sc_hd__clkdlybuf4s25_1 abstract view
.subckt sky130_fd_sc_hd__clkdlybuf4s25_1 A VGND VNB VPB VPWR X
.ends

* Black-box entry subcircuit for sky130_fd_sc_hd__o21bai_2 abstract view
.subckt sky130_fd_sc_hd__o21bai_2 A1 A2 B1_N VGND VNB VPB VPWR Y
.ends

* Black-box entry subcircuit for sky130_fd_sc_hd__nor3b_2 abstract view
.subckt sky130_fd_sc_hd__nor3b_2 A B C_N VGND VNB VPB VPWR Y
.ends

* Black-box entry subcircuit for sky130_fd_sc_hd__and2b_2 abstract view
.subckt sky130_fd_sc_hd__and2b_2 A_N B VGND VNB VPB VPWR X
.ends

* Black-box entry subcircuit for sky130_fd_sc_hd__o211a_1 abstract view
.subckt sky130_fd_sc_hd__o211a_1 A1 A2 B1 C1 VGND VNB VPB VPWR X
.ends

* Black-box entry subcircuit for sky130_fd_sc_hd__o211ai_2 abstract view
.subckt sky130_fd_sc_hd__o211ai_2 A1 A2 B1 C1 VGND VNB VPB VPWR Y
.ends

* Black-box entry subcircuit for sky130_fd_sc_hd__and2b_1 abstract view
.subckt sky130_fd_sc_hd__and2b_1 A_N B VGND VNB VPB VPWR X
.ends

* Black-box entry subcircuit for sky130_fd_sc_hd__o2bb2ai_1 abstract view
.subckt sky130_fd_sc_hd__o2bb2ai_1 A1_N A2_N B1 B2 VGND VNB VPB VPWR Y
.ends

* Black-box entry subcircuit for sky130_fd_sc_hd__dlygate4sd1_1 abstract view
.subckt sky130_fd_sc_hd__dlygate4sd1_1 A VGND VNB VPB VPWR X
.ends

* Black-box entry subcircuit for sky130_fd_sc_hd__o21ai_2 abstract view
.subckt sky130_fd_sc_hd__o21ai_2 A1 A2 B1 VGND VNB VPB VPWR Y
.ends

.subckt caravel_clocking VGND VPWR core_clk ext_clk ext_clk_sel ext_reset pll_clk
+ pll_clk90 resetb resetb_sync sel2[0] sel2[1] sel2[2] sel[0] sel[1] sel[2] user_clk
XTAP_199 VGND VPWR sky130_fd_sc_hd__tapvpwrvgnd_1
XTAP_188 VGND VPWR sky130_fd_sc_hd__tapvpwrvgnd_1
XTAP_177 VGND VPWR sky130_fd_sc_hd__tapvpwrvgnd_1
XANTENNA__274__B1 _430_/Q VGND VGND VPWR VPWR sky130_fd_sc_hd__diode_2
XFILLER_9_126 VGND VGND VPWR VPWR sky130_fd_sc_hd__fill_2
X_432_ _351_/Y _432_/D _343_/S VGND VGND VPWR VPWR _432_/Q sky130_fd_sc_hd__dfrtp_4
X_294_ _450_/Q VGND VGND VPWR VPWR _296_/A sky130_fd_sc_hd__inv_2
X_363_ _445_/Q _444_/Q VGND VGND VPWR VPWR _363_/Y sky130_fd_sc_hd__xnor2_1
X_346_ _346_/A VGND VGND VPWR VPWR _410_/S sky130_fd_sc_hd__clkinv_4
XFILLER_10_125 VGND VGND VPWR VPWR sky130_fd_sc_hd__decap_12
XFILLER_6_107 VGND VGND VPWR VPWR sky130_fd_sc_hd__decap_4
X_415_ _411_/A1 _415_/D VGND VGND VPWR VPWR _415_/Q sky130_fd_sc_hd__dfxtp_1
X_277_ _282_/A VGND VGND VPWR VPWR _332_/B sky130_fd_sc_hd__clkbuf_2
XFILLER_5_195 VGND VGND VPWR VPWR sky130_fd_sc_hd__decap_6
Xclkbuf_1_1_0_pll_clk clkbuf_0_pll_clk/X VGND VGND VPWR VPWR _411_/A1 sky130_fd_sc_hd__clkbuf_2
XFILLER_9_66 VGND VGND VPWR VPWR sky130_fd_sc_hd__decap_4
XFILLER_9_44 VGND VGND VPWR VPWR sky130_fd_sc_hd__decap_8
XFILLER_9_33 VGND VGND VPWR VPWR sky130_fd_sc_hd__decap_4
X_329_ _329_/A _329_/B VGND VGND VPWR VPWR _442_/D sky130_fd_sc_hd__nand2_1
XFILLER_0_79 VGND VGND VPWR VPWR sky130_fd_sc_hd__decap_12
XFILLER_0_57 VGND VGND VPWR VPWR sky130_fd_sc_hd__fill_1
XFILLER_18_64 VGND VGND VPWR VPWR sky130_fd_sc_hd__fill_1
XANTENNA__443__RESET_B _343_/S VGND VGND VPWR VPWR sky130_fd_sc_hd__diode_2
XFILLER_6_12 VGND VGND VPWR VPWR sky130_fd_sc_hd__fill_1
X_258__3 _464_/CLK VGND VGND VPWR VPWR _457_/CLK sky130_fd_sc_hd__inv_4
XTAP_189 VGND VPWR sky130_fd_sc_hd__tapvpwrvgnd_1
XTAP_178 VGND VPWR sky130_fd_sc_hd__tapvpwrvgnd_1
XTAP_167 VGND VPWR sky130_fd_sc_hd__tapvpwrvgnd_1
XTAP_156 VGND VPWR sky130_fd_sc_hd__tapvpwrvgnd_1
XTAP_145 VGND VPWR sky130_fd_sc_hd__tapvpwrvgnd_1
XTAP_134 VGND VPWR sky130_fd_sc_hd__tapvpwrvgnd_1
XTAP_123 VGND VPWR sky130_fd_sc_hd__tapvpwrvgnd_1
XTAP_101 VGND VPWR sky130_fd_sc_hd__tapvpwrvgnd_1
XTAP_112 VGND VPWR sky130_fd_sc_hd__tapvpwrvgnd_1
XFILLER_13_178 VGND VGND VPWR VPWR sky130_fd_sc_hd__decap_4
XFILLER_13_101 VGND VGND VPWR VPWR sky130_fd_sc_hd__decap_3
X_293_ _448_/Q _326_/B _397_/X VGND VGND VPWR VPWR _293_/Y sky130_fd_sc_hd__nand3b_1
X_362_ _444_/Q VGND VGND VPWR VPWR _362_/Y sky130_fd_sc_hd__clkinv_2
X_431_ _351_/Y _431_/D _343_/S VGND VGND VPWR VPWR _431_/Q sky130_fd_sc_hd__dfstp_4
XFILLER_12_66 VGND VGND VPWR VPWR sky130_fd_sc_hd__fill_1
XFILLER_12_22 VGND VGND VPWR VPWR sky130_fd_sc_hd__fill_1
XFILLER_12_11 VGND VGND VPWR VPWR sky130_fd_sc_hd__fill_2
XFILLER_10_137 VGND VGND VPWR VPWR sky130_fd_sc_hd__decap_6
X_276_ _443_/Q VGND VGND VPWR VPWR _282_/A sky130_fd_sc_hd__inv_2
X_345_ _345_/A VGND VGND VPWR VPWR _404_/S sky130_fd_sc_hd__clkinv_4
X_414_ _411_/A1 _430_/Q VGND VGND VPWR VPWR _414_/Q sky130_fd_sc_hd__dfxtp_1
X_259_ _263_/A _409_/X VGND VGND VPWR VPWR _261_/A sky130_fd_sc_hd__nand2_1
X_328_ _332_/A _332_/B _442_/Q VGND VGND VPWR VPWR _329_/B sky130_fd_sc_hd__nand3_1
XFILLER_0_69 VGND VGND VPWR VPWR sky130_fd_sc_hd__decap_8
XFILLER_0_14 VGND VGND VPWR VPWR sky130_fd_sc_hd__decap_12
XFILLER_2_144 VGND VGND VPWR VPWR sky130_fd_sc_hd__fill_1
XFILLER_18_87 VGND VGND VPWR VPWR sky130_fd_sc_hd__decap_4
XANTENNA__310__B1 _430_/Q VGND VGND VPWR VPWR sky130_fd_sc_hd__diode_2
XFILLER_19_140 VGND VGND VPWR VPWR sky130_fd_sc_hd__decap_3
Xoutput10 _393_/X VGND VGND VPWR VPWR core_clk sky130_fd_sc_hd__clkbuf_1
XFILLER_15_88 VGND VGND VPWR VPWR sky130_fd_sc_hd__decap_4
XTAP_179 VGND VPWR sky130_fd_sc_hd__tapvpwrvgnd_1
XTAP_168 VGND VPWR sky130_fd_sc_hd__tapvpwrvgnd_1
XTAP_157 VGND VPWR sky130_fd_sc_hd__tapvpwrvgnd_1
XTAP_146 VGND VPWR sky130_fd_sc_hd__tapvpwrvgnd_1
XTAP_135 VGND VPWR sky130_fd_sc_hd__tapvpwrvgnd_1
XTAP_124 VGND VPWR sky130_fd_sc_hd__tapvpwrvgnd_1
XTAP_113 VGND VPWR sky130_fd_sc_hd__tapvpwrvgnd_1
XTAP_102 VGND VPWR sky130_fd_sc_hd__tapvpwrvgnd_1
X_292_ _443_/Q _290_/Y _291_/Y VGND VGND VPWR VPWR _292_/Y sky130_fd_sc_hd__o21bai_1
X_430_ _351_/Y _430_/D _343_/S VGND VGND VPWR VPWR _430_/Q sky130_fd_sc_hd__dfrtp_4
X_361_ _453_/Q _361_/B VGND VGND VPWR VPWR _361_/X sky130_fd_sc_hd__xor2_1
XFILLER_3_25 VGND VGND VPWR VPWR sky130_fd_sc_hd__fill_1
X_344_ _344_/A VGND VGND VPWR VPWR _420_/D sky130_fd_sc_hd__buf_1
X_413_ _455_/Q _413_/A1 _413_/S VGND VGND VPWR VPWR _413_/X sky130_fd_sc_hd__mux2_1
X_275_ _345_/A _275_/B _275_/C VGND VGND VPWR VPWR _281_/A sky130_fd_sc_hd__nand3b_1
XFILLER_2_156 VGND VGND VPWR VPWR sky130_fd_sc_hd__fill_1
XFILLER_9_79 VGND VGND VPWR VPWR sky130_fd_sc_hd__fill_1
X_327_ _335_/A _407_/X VGND VGND VPWR VPWR _329_/A sky130_fd_sc_hd__nand2_1
XFILLER_18_11 VGND VGND VPWR VPWR sky130_fd_sc_hd__fill_2
XANTENNA__386__A1 _430_/Q VGND VGND VPWR VPWR sky130_fd_sc_hd__diode_2
XANTENNA__439__SET_B _343_/S VGND VGND VPWR VPWR sky130_fd_sc_hd__diode_2
XFILLER_6_14 VGND VGND VPWR VPWR sky130_fd_sc_hd__decap_3
Xoutput11 _375_/Y VGND VGND VPWR VPWR resetb_sync sky130_fd_sc_hd__buf_2
XANTENNA__422__SET_B _343_/S VGND VGND VPWR VPWR sky130_fd_sc_hd__diode_2
XTAP_169 VGND VPWR sky130_fd_sc_hd__tapvpwrvgnd_1
XTAP_158 VGND VPWR sky130_fd_sc_hd__tapvpwrvgnd_1
XTAP_147 VGND VPWR sky130_fd_sc_hd__tapvpwrvgnd_1
XTAP_136 VGND VPWR sky130_fd_sc_hd__tapvpwrvgnd_1
XTAP_125 VGND VPWR sky130_fd_sc_hd__tapvpwrvgnd_1
XTAP_114 VGND VPWR sky130_fd_sc_hd__tapvpwrvgnd_1
XTAP_103 VGND VPWR sky130_fd_sc_hd__tapvpwrvgnd_1
XFILLER_9_118 VGND VGND VPWR VPWR sky130_fd_sc_hd__decap_8
XFILLER_9_107 VGND VGND VPWR VPWR sky130_fd_sc_hd__decap_4
X_291_ _299_/B VGND VGND VPWR VPWR _291_/Y sky130_fd_sc_hd__inv_2
X_360_ _452_/Q _451_/Q VGND VGND VPWR VPWR _361_/B sky130_fd_sc_hd__nor2_1
X_412_ _412_/A0 _426_/Q _425_/D VGND VGND VPWR VPWR _412_/X sky130_fd_sc_hd__mux2_1
X_343_ hold1/A _343_/A1 _343_/S VGND VGND VPWR VPWR _344_/A sky130_fd_sc_hd__mux2_2
X_274_ _432_/Q _431_/Q _430_/Q VGND VGND VPWR VPWR _275_/C sky130_fd_sc_hd__o21a_1
XFILLER_4_80 VGND VGND VPWR VPWR sky130_fd_sc_hd__decap_8
XFILLER_0_27 VGND VGND VPWR VPWR sky130_fd_sc_hd__decap_12
XFILLER_2_113 VGND VGND VPWR VPWR sky130_fd_sc_hd__fill_2
X_257_ _257_/A _257_/B VGND VGND VPWR VPWR _458_/D sky130_fd_sc_hd__nand2_1
X_326_ _332_/A _326_/B VGND VGND VPWR VPWR _335_/A sky130_fd_sc_hd__nand2_1
XFILLER_18_56 VGND VGND VPWR VPWR sky130_fd_sc_hd__fill_2
XFILLER_11_201 VGND VGND VPWR VPWR sky130_fd_sc_hd__fill_1
X_342__7 _393_/X VGND VGND VPWR VPWR _421_/CLK sky130_fd_sc_hd__inv_4
X_309_ _450_/Q _449_/Q VGND VGND VPWR VPWR _309_/Y sky130_fd_sc_hd__nor2_1
Xoutput12 _394_/X VGND VGND VPWR VPWR user_clk sky130_fd_sc_hd__clkbuf_1
XFILLER_15_79 VGND VGND VPWR VPWR sky130_fd_sc_hd__fill_1
XTAP_159 VGND VPWR sky130_fd_sc_hd__tapvpwrvgnd_1
XTAP_148 VGND VPWR sky130_fd_sc_hd__tapvpwrvgnd_1
XTAP_137 VGND VPWR sky130_fd_sc_hd__tapvpwrvgnd_1
XTAP_126 VGND VPWR sky130_fd_sc_hd__tapvpwrvgnd_1
XTAP_115 VGND VPWR sky130_fd_sc_hd__tapvpwrvgnd_1
XTAP_104 VGND VPWR sky130_fd_sc_hd__tapvpwrvgnd_1
XANTENNA_input8_A sel[1] VGND VGND VPWR VPWR sky130_fd_sc_hd__diode_2
X_290_ _449_/Q _448_/Q VGND VGND VPWR VPWR _290_/Y sky130_fd_sc_hd__nor2_1
XFILLER_12_170 VGND VGND VPWR VPWR sky130_fd_sc_hd__decap_3
XFILLER_12_25 VGND VGND VPWR VPWR sky130_fd_sc_hd__fill_2
XFILLER_12_14 VGND VGND VPWR VPWR sky130_fd_sc_hd__decap_8
Xclkbuf_0_pll_clk pll_clk VGND VGND VPWR VPWR clkbuf_0_pll_clk/X sky130_fd_sc_hd__clkbuf_16
XFILLER_8_196 VGND VGND VPWR VPWR sky130_fd_sc_hd__decap_6
X_273_ _454_/Q VGND VGND VPWR VPWR _275_/B sky130_fd_sc_hd__inv_2
XANTENNA__404__A1 _430_/Q VGND VGND VPWR VPWR sky130_fd_sc_hd__diode_2
X_411_ _439_/Q _411_/A1 _411_/S VGND VGND VPWR VPWR _411_/X sky130_fd_sc_hd__mux2_1
XANTENNA__446__RESET_B _343_/S VGND VGND VPWR VPWR sky130_fd_sc_hd__diode_2
XFILLER_4_70 VGND VGND VPWR VPWR sky130_fd_sc_hd__decap_6
X_256_ _260_/A _260_/B _458_/Q VGND VGND VPWR VPWR _257_/B sky130_fd_sc_hd__nand3_1
XFILLER_9_37 VGND VGND VPWR VPWR sky130_fd_sc_hd__fill_1
X_325_ _321_/Y _324_/Y _283_/Y VGND VGND VPWR VPWR _443_/D sky130_fd_sc_hd__o21a_1
XFILLER_18_35 VGND VGND VPWR VPWR sky130_fd_sc_hd__fill_1
XANTENNA__468__SET_B _343_/S VGND VGND VPWR VPWR sky130_fd_sc_hd__diode_2
X_308_ _308_/A _440_/Q VGND VGND VPWR VPWR _308_/Y sky130_fd_sc_hd__nand2_1
XFILLER_6_38 VGND VGND VPWR VPWR sky130_fd_sc_hd__fill_1
XTAP_149 VGND VPWR sky130_fd_sc_hd__tapvpwrvgnd_1
XTAP_138 VGND VPWR sky130_fd_sc_hd__tapvpwrvgnd_1
XTAP_127 VGND VPWR sky130_fd_sc_hd__tapvpwrvgnd_1
XTAP_116 VGND VPWR sky130_fd_sc_hd__tapvpwrvgnd_1
XTAP_105 VGND VPWR sky130_fd_sc_hd__tapvpwrvgnd_1
XFILLER_13_105 VGND VGND VPWR VPWR sky130_fd_sc_hd__decap_4
XFILLER_16_90 VGND VGND VPWR VPWR sky130_fd_sc_hd__fill_1
X_410_ _438_/Q _373_/Y _410_/S VGND VGND VPWR VPWR _410_/X sky130_fd_sc_hd__mux2_1
X_272_ _272_/A _451_/Q VGND VGND VPWR VPWR _345_/A sky130_fd_sc_hd__nand2_1
XFILLER_5_112 VGND VGND VPWR VPWR sky130_fd_sc_hd__fill_1
X_255_ _263_/A _396_/X VGND VGND VPWR VPWR _257_/A sky130_fd_sc_hd__nand2_1
XFILLER_2_148 VGND VGND VPWR VPWR sky130_fd_sc_hd__decap_8
X_324_ _322_/Y _323_/X _275_/C VGND VGND VPWR VPWR _324_/Y sky130_fd_sc_hd__o21ai_1
XANTENNA__428__SET_B _343_/S VGND VGND VPWR VPWR sky130_fd_sc_hd__diode_2
XFILLER_1_3 VGND VGND VPWR VPWR sky130_fd_sc_hd__decap_12
X_238_ _233_/Y _234_/Y _237_/Y _462_/Q VGND VGND VPWR VPWR _462_/D sky130_fd_sc_hd__a22o_1
X_307_ _442_/Q _441_/Q VGND VGND VPWR VPWR _308_/A sky130_fd_sc_hd__nor2_1
XANTENNA__430__RESET_B _343_/S VGND VGND VPWR VPWR sky130_fd_sc_hd__diode_2
XFILLER_19_188 VGND VGND VPWR VPWR sky130_fd_sc_hd__decap_4
XFILLER_19_155 VGND VGND VPWR VPWR sky130_fd_sc_hd__fill_1
XFILLER_10_92 VGND VGND VPWR VPWR sky130_fd_sc_hd__decap_3
XFILLER_6_28 VGND VGND VPWR VPWR sky130_fd_sc_hd__decap_4
XFILLER_16_114 VGND VGND VPWR VPWR sky130_fd_sc_hd__fill_1
XTAP_139 VGND VPWR sky130_fd_sc_hd__tapvpwrvgnd_1
XTAP_128 VGND VPWR sky130_fd_sc_hd__tapvpwrvgnd_1
XTAP_117 VGND VPWR sky130_fd_sc_hd__tapvpwrvgnd_1
XPHY_0 VGND VGND VPWR VPWR sky130_fd_sc_hd__decap_3
XTAP_106 VGND VPWR sky130_fd_sc_hd__tapvpwrvgnd_1
X_271_ _453_/Q _452_/Q VGND VGND VPWR VPWR _272_/A sky130_fd_sc_hd__nor2_1
X_469_ _413_/A1 _469_/D _343_/S VGND VGND VPWR VPWR _469_/Q sky130_fd_sc_hd__dfrtp_1
X_254_ _260_/A _254_/B VGND VGND VPWR VPWR _263_/A sky130_fd_sc_hd__nand2_1
XFILLER_2_138 VGND VGND VPWR VPWR sky130_fd_sc_hd__decap_4
X_323_ _432_/Q _416_/Q VGND VGND VPWR VPWR _323_/X sky130_fd_sc_hd__and2_1
XANTENNA__434__SET_B _343_/S VGND VGND VPWR VPWR sky130_fd_sc_hd__diode_2
X_237_ _467_/Q _235_/Y _236_/Y VGND VGND VPWR VPWR _237_/Y sky130_fd_sc_hd__o21bai_1
X_306_ _306_/A _306_/B _406_/S VGND VGND VPWR VPWR _312_/A sky130_fd_sc_hd__nand3_1
XANTENNA__470__RESET_B _343_/S VGND VGND VPWR VPWR sky130_fd_sc_hd__diode_2
XFILLER_19_178 VGND VGND VPWR VPWR sky130_fd_sc_hd__decap_4
XFILLER_19_167 VGND VGND VPWR VPWR sky130_fd_sc_hd__fill_2
XFILLER_19_101 VGND VGND VPWR VPWR sky130_fd_sc_hd__decap_3
XFILLER_3_200 VGND VGND VPWR VPWR sky130_fd_sc_hd__fill_2
XTAP_129 VGND VPWR sky130_fd_sc_hd__tapvpwrvgnd_1
XTAP_118 VGND VPWR sky130_fd_sc_hd__tapvpwrvgnd_1
XPHY_1 VGND VGND VPWR VPWR sky130_fd_sc_hd__decap_3
XTAP_107 VGND VPWR sky130_fd_sc_hd__tapvpwrvgnd_1
XFILLER_16_92 VGND VGND VPWR VPWR sky130_fd_sc_hd__fill_2
XANTENNA_input6_A sel2[2] VGND VGND VPWR VPWR sky130_fd_sc_hd__diode_2
X_270_ _270_/A _270_/B VGND VGND VPWR VPWR _455_/D sky130_fd_sc_hd__nand2_1
XFILLER_5_103 VGND VGND VPWR VPWR sky130_fd_sc_hd__fill_1
X_468_ _413_/A1 _468_/D _343_/S VGND VGND VPWR VPWR _468_/Q sky130_fd_sc_hd__dfstp_1
XANTENNA__424__RESET_B _343_/S VGND VGND VPWR VPWR sky130_fd_sc_hd__diode_2
XFILLER_4_40 VGND VGND VPWR VPWR sky130_fd_sc_hd__fill_2
X_399_ _398_/X _432_/Q _443_/Q VGND VGND VPWR VPWR _399_/X sky130_fd_sc_hd__mux2_1
XANTENNA__457__SET_B _343_/S VGND VGND VPWR VPWR sky130_fd_sc_hd__diode_2
XFILLER_9_29 VGND VGND VPWR VPWR sky130_fd_sc_hd__fill_1
X_322_ _432_/Q _416_/Q VGND VGND VPWR VPWR _322_/Y sky130_fd_sc_hd__nor2_1
X_253_ _253_/A _253_/B _260_/B VGND VGND VPWR VPWR _459_/D sky130_fd_sc_hd__nand3_1
XFILLER_1_194 VGND VGND VPWR VPWR sky130_fd_sc_hd__decap_3
XFILLER_1_183 VGND VGND VPWR VPWR sky130_fd_sc_hd__fill_2
X_236_ _390_/X VGND VGND VPWR VPWR _236_/Y sky130_fd_sc_hd__inv_2
X_305_ _442_/Q _441_/Q _440_/Q VGND VGND VPWR VPWR _406_/S sky130_fd_sc_hd__nor3b_4
Xclkbuf_1_1_0_pll_clk90 clkbuf_0_pll_clk90/X VGND VGND VPWR VPWR _413_/A1 sky130_fd_sc_hd__clkbuf_2
XFILLER_1_85 VGND VGND VPWR VPWR sky130_fd_sc_hd__fill_2
XANTENNA__317__S _430_/Q VGND VGND VPWR VPWR sky130_fd_sc_hd__diode_2
X_219_ _465_/Q _464_/Q VGND VGND VPWR VPWR _220_/A sky130_fd_sc_hd__nor2_1
XANTENNA_clkbuf_0_pll_clk_A pll_clk VGND VGND VPWR VPWR sky130_fd_sc_hd__diode_2
XTAP_119 VGND VPWR sky130_fd_sc_hd__tapvpwrvgnd_1
XPHY_2 VGND VGND VPWR VPWR sky130_fd_sc_hd__decap_3
XTAP_108 VGND VPWR sky130_fd_sc_hd__tapvpwrvgnd_1
XFILLER_12_196 VGND VGND VPWR VPWR sky130_fd_sc_hd__fill_1
X_467_ _413_/A1 _467_/D _343_/S VGND VGND VPWR VPWR _467_/Q sky130_fd_sc_hd__dfrtp_4
X_398_ _361_/X _432_/Q _404_/S VGND VGND VPWR VPWR _398_/X sky130_fd_sc_hd__mux2_1
X_252_ _250_/Y _260_/A _248_/B VGND VGND VPWR VPWR _253_/B sky130_fd_sc_hd__o21bai_1
X_321_ _321_/A _321_/B _414_/Q VGND VGND VPWR VPWR _321_/Y sky130_fd_sc_hd__nand3_1
Xclkbuf_1_0_0_pll_clk90 clkbuf_0_pll_clk90/X VGND VGND VPWR VPWR _464_/CLK sky130_fd_sc_hd__clkbuf_2
X_235_ _461_/Q _460_/Q VGND VGND VPWR VPWR _235_/Y sky130_fd_sc_hd__nor2_1
X_304_ _447_/Q VGND VGND VPWR VPWR _306_/B sky130_fd_sc_hd__inv_2
XFILLER_1_97 VGND VGND VPWR VPWR sky130_fd_sc_hd__fill_1
X_218_ _210_/Y _214_/Y _217_/Y VGND VGND VPWR VPWR _467_/D sky130_fd_sc_hd__o21a_1
Xclkbuf_1_1_0_ext_clk clkbuf_0_ext_clk/X VGND VGND VPWR VPWR _412_/A0 sky130_fd_sc_hd__clkbuf_2
XFILLER_16_139 VGND VGND VPWR VPWR sky130_fd_sc_hd__decap_4
XTAP_109 VGND VPWR sky130_fd_sc_hd__tapvpwrvgnd_1
XFILLER_15_183 VGND VGND VPWR VPWR sky130_fd_sc_hd__decap_12
XPHY_3 VGND VGND VPWR VPWR sky130_fd_sc_hd__decap_3
XFILLER_7_74 VGND VGND VPWR VPWR sky130_fd_sc_hd__decap_4
Xclkbuf_1_0_0_pll_clk clkbuf_0_pll_clk/X VGND VGND VPWR VPWR _453_/CLK sky130_fd_sc_hd__clkbuf_2
XFILLER_8_168 VGND VGND VPWR VPWR sky130_fd_sc_hd__fill_1
X_466_ _413_/A1 _466_/D _343_/S VGND VGND VPWR VPWR _466_/Q sky130_fd_sc_hd__dfstp_1
X_397_ _283_/Y _443_/Q _397_/S VGND VGND VPWR VPWR _397_/X sky130_fd_sc_hd__mux2_4
XANTENNA__423__SET_B _343_/S VGND VGND VPWR VPWR sky130_fd_sc_hd__diode_2
XANTENNA__433__RESET_B _343_/S VGND VGND VPWR VPWR sky130_fd_sc_hd__diode_2
X_251_ _437_/Q _438_/Q _436_/Q _234_/Y VGND VGND VPWR VPWR _260_/A sky130_fd_sc_hd__o211ai_4
X_320_ _415_/Q _431_/Q VGND VGND VPWR VPWR _321_/B sky130_fd_sc_hd__or2b_1
X_449_ _449_/CLK _449_/D _343_/S VGND VGND VPWR VPWR _449_/Q sky130_fd_sc_hd__dfstp_1
X_234_ _462_/Q _461_/Q VGND VGND VPWR VPWR _234_/Y sky130_fd_sc_hd__nor2_2
X_303_ _303_/A _303_/B VGND VGND VPWR VPWR _397_/S sky130_fd_sc_hd__nor2_1
XFILLER_6_200 VGND VGND VPWR VPWR sky130_fd_sc_hd__fill_2
X_217_ _224_/A _254_/B VGND VGND VPWR VPWR _217_/Y sky130_fd_sc_hd__nand2_2
X_302__5 _411_/A1 VGND VGND VPWR VPWR _447_/CLK sky130_fd_sc_hd__inv_4
XANTENNA__458__RESET_B _343_/S VGND VGND VPWR VPWR sky130_fd_sc_hd__diode_2
XFILLER_15_195 VGND VGND VPWR VPWR sky130_fd_sc_hd__fill_2
XPHY_4 VGND VGND VPWR VPWR sky130_fd_sc_hd__decap_3
XFILLER_16_40 VGND VGND VPWR VPWR sky130_fd_sc_hd__decap_4
XFILLER_8_103 VGND VGND VPWR VPWR sky130_fd_sc_hd__decap_12
X_396_ _395_/X _438_/Q _467_/Q VGND VGND VPWR VPWR _396_/X sky130_fd_sc_hd__mux2_1
X_465_ _413_/A1 _465_/D _343_/S VGND VGND VPWR VPWR _465_/Q sky130_fd_sc_hd__dfrtp_1
X_250_ _250_/A _456_/Q VGND VGND VPWR VPWR _250_/Y sky130_fd_sc_hd__nand2_1
XANTENNA_input4_A sel2[0] VGND VGND VPWR VPWR sky130_fd_sc_hd__diode_2
X_379_ _368_/Y _436_/Q _391_/S VGND VGND VPWR VPWR _379_/X sky130_fd_sc_hd__mux2_1
X_448_ _453_/CLK _448_/D _343_/S VGND VGND VPWR VPWR _448_/Q sky130_fd_sc_hd__dfrtn_1
X_233_ _467_/Q _460_/Q _390_/X VGND VGND VPWR VPWR _233_/Y sky130_fd_sc_hd__nor3b_1
XFILLER_19_127 VGND VGND VPWR VPWR sky130_fd_sc_hd__decap_3
XFILLER_19_116 VGND VGND VPWR VPWR sky130_fd_sc_hd__fill_1
XFILLER_19_51 VGND VGND VPWR VPWR sky130_fd_sc_hd__fill_1
XFILLER_18_3 VGND VGND VPWR VPWR sky130_fd_sc_hd__decap_8
X_216_ _467_/Q VGND VGND VPWR VPWR _254_/B sky130_fd_sc_hd__clkinv_4
XPHY_5 VGND VGND VPWR VPWR sky130_fd_sc_hd__decap_3
XANTENNA__427__RESET_B _343_/S VGND VGND VPWR VPWR sky130_fd_sc_hd__diode_2
XFILLER_16_63 VGND VGND VPWR VPWR sky130_fd_sc_hd__fill_2
XFILLER_8_115 VGND VGND VPWR VPWR sky130_fd_sc_hd__fill_2
X_464_ _464_/CLK _464_/D _343_/S VGND VGND VPWR VPWR _464_/Q sky130_fd_sc_hd__dfstp_1
X_395_ _367_/X _438_/Q _408_/S VGND VGND VPWR VPWR _395_/X sky130_fd_sc_hd__mux2_1
XFILLER_4_11 VGND VGND VPWR VPWR sky130_fd_sc_hd__fill_2
XFILLER_4_88 VGND VGND VPWR VPWR sky130_fd_sc_hd__fill_1
XANTENNA__452__SET_B _343_/S VGND VGND VPWR VPWR sky130_fd_sc_hd__diode_2
XFILLER_13_53 VGND VGND VPWR VPWR sky130_fd_sc_hd__fill_2
XFILLER_13_31 VGND VGND VPWR VPWR sky130_fd_sc_hd__fill_1
XANTENNA__442__RESET_B _343_/S VGND VGND VPWR VPWR sky130_fd_sc_hd__diode_2
X_447_ _447_/CLK _447_/D _343_/S VGND VGND VPWR VPWR _447_/Q sky130_fd_sc_hd__dfstp_1
X_232_ _380_/X _217_/Y _231_/Y VGND VGND VPWR VPWR _463_/D sky130_fd_sc_hd__a21bo_1
XFILLER_1_23 VGND VGND VPWR VPWR sky130_fd_sc_hd__fill_1
X_301_ _291_/Y _448_/Q _293_/Y VGND VGND VPWR VPWR _448_/D sky130_fd_sc_hd__a21bo_1
XFILLER_10_32 VGND VGND VPWR VPWR sky130_fd_sc_hd__fill_1
X_215_ _437_/Q _438_/Q _436_/Q VGND VGND VPWR VPWR _224_/A sky130_fd_sc_hd__o21ai_1
XPHY_6 VGND VGND VPWR VPWR sky130_fd_sc_hd__decap_3
XFILLER_7_88 VGND VGND VPWR VPWR sky130_fd_sc_hd__decap_4
XANTENNA__467__RESET_B _343_/S VGND VGND VPWR VPWR sky130_fd_sc_hd__diode_2
XFILLER_16_53 VGND VGND VPWR VPWR sky130_fd_sc_hd__fill_1
XFILLER_12_134 VGND VGND VPWR VPWR sky130_fd_sc_hd__fill_2
XFILLER_5_119 VGND VGND VPWR VPWR sky130_fd_sc_hd__fill_2
X_394_ _412_/X _354_/Y _425_/Q VGND VGND VPWR VPWR _394_/X sky130_fd_sc_hd__mux2_1
X_463_ _464_/CLK _463_/D _343_/S VGND VGND VPWR VPWR _463_/Q sky130_fd_sc_hd__dfrtp_2
XFILLER_4_196 VGND VGND VPWR VPWR sky130_fd_sc_hd__fill_1
XFILLER_13_76 VGND VGND VPWR VPWR sky130_fd_sc_hd__fill_2
XFILLER_13_43 VGND VGND VPWR VPWR sky130_fd_sc_hd__fill_1
X_377_ _470_/Q _377_/B VGND VGND VPWR VPWR _470_/D sky130_fd_sc_hd__xor2_1
XFILLER_1_122 VGND VGND VPWR VPWR sky130_fd_sc_hd__decap_3
X_446_ _453_/CLK _446_/D _343_/S VGND VGND VPWR VPWR _446_/Q sky130_fd_sc_hd__dfrtp_1
XFILLER_8_3 VGND VGND VPWR VPWR sky130_fd_sc_hd__decap_8
Xclkbuf_0_ext_clk ext_clk VGND VGND VPWR VPWR clkbuf_0_ext_clk/X sky130_fd_sc_hd__clkbuf_16
X_231_ _231_/A _254_/B _463_/Q VGND VGND VPWR VPWR _231_/Y sky130_fd_sc_hd__nand3_1
X_300_ _296_/B _299_/X _292_/Y VGND VGND VPWR VPWR _449_/D sky130_fd_sc_hd__o21ai_1
X_429_ _351_/Y _429_/D _343_/S VGND VGND VPWR VPWR _432_/D sky130_fd_sc_hd__dfrtp_1
XFILLER_19_53 VGND VGND VPWR VPWR sky130_fd_sc_hd__decap_12
XFILLER_19_20 VGND VGND VPWR VPWR sky130_fd_sc_hd__decap_6
XFILLER_10_11 VGND VGND VPWR VPWR sky130_fd_sc_hd__fill_2
Xinput1 ext_clk_sel VGND VGND VPWR VPWR _374_/A sky130_fd_sc_hd__clkbuf_1
XTAP_90 VGND VPWR sky130_fd_sc_hd__tapvpwrvgnd_1
XFILLER_19_86 VGND VGND VPWR VPWR sky130_fd_sc_hd__decap_3
X_214_ _211_/Y _212_/X _222_/C VGND VGND VPWR VPWR _214_/Y sky130_fd_sc_hd__o21ai_1
XANTENNA__313__A _430_/Q VGND VGND VPWR VPWR sky130_fd_sc_hd__diode_2
XPHY_7 VGND VGND VPWR VPWR sky130_fd_sc_hd__decap_3
XANTENNA__436__RESET_B _343_/S VGND VGND VPWR VPWR sky130_fd_sc_hd__diode_2
XFILLER_7_183 VGND VGND VPWR VPWR sky130_fd_sc_hd__decap_12
X_393_ _412_/X _351_/Y _425_/Q VGND VGND VPWR VPWR _393_/X sky130_fd_sc_hd__mux2_1
X_462_ _464_/CLK _462_/D _343_/S VGND VGND VPWR VPWR _462_/Q sky130_fd_sc_hd__dfrtn_1
XANTENNA__451__RESET_B _343_/S VGND VGND VPWR VPWR sky130_fd_sc_hd__diode_2
X_376_ _469_/Q _436_/Q _468_/Q VGND VGND VPWR VPWR _377_/B sky130_fd_sc_hd__nor3_1
X_445_ _453_/CLK _445_/D _343_/S VGND VGND VPWR VPWR _445_/Q sky130_fd_sc_hd__dfrtp_1
XANTENNA_input2_A ext_reset VGND VGND VPWR VPWR sky130_fd_sc_hd__diode_2
X_230_ _392_/X _217_/Y _229_/Y VGND VGND VPWR VPWR _464_/D sky130_fd_sc_hd__a21bo_1
XFILLER_10_200 VGND VGND VPWR VPWR sky130_fd_sc_hd__fill_2
XANTENNA__385__A1 _430_/Q VGND VGND VPWR VPWR sky130_fd_sc_hd__diode_2
X_428_ _351_/Y _428_/D _343_/S VGND VGND VPWR VPWR _431_/D sky130_fd_sc_hd__dfstp_1
X_359_ _452_/Q _451_/Q VGND VGND VPWR VPWR _359_/Y sky130_fd_sc_hd__xnor2_1
Xinput2 ext_reset VGND VGND VPWR VPWR _375_/A sky130_fd_sc_hd__clkbuf_1
XTAP_80 VGND VPWR sky130_fd_sc_hd__tapvpwrvgnd_1
XTAP_91 VGND VPWR sky130_fd_sc_hd__tapvpwrvgnd_1
X_213_ _437_/Q _438_/Q _436_/Q VGND VGND VPWR VPWR _222_/C sky130_fd_sc_hd__o21a_1
XFILLER_18_196 VGND VGND VPWR VPWR sky130_fd_sc_hd__fill_1
XFILLER_2_90 VGND VGND VPWR VPWR sky130_fd_sc_hd__fill_1
XFILLER_16_3 VGND VGND VPWR VPWR sky130_fd_sc_hd__decap_8
XFILLER_15_155 VGND VGND VPWR VPWR sky130_fd_sc_hd__fill_1
XPHY_8 VGND VGND VPWR VPWR sky130_fd_sc_hd__decap_3
XFILLER_7_46 VGND VGND VPWR VPWR sky130_fd_sc_hd__decap_4
XFILLER_16_66 VGND VGND VPWR VPWR sky130_fd_sc_hd__decap_8
XFILLER_16_11 VGND VGND VPWR VPWR sky130_fd_sc_hd__fill_2
XANTENNA__441__SET_B _343_/S VGND VGND VPWR VPWR sky130_fd_sc_hd__diode_2
XFILLER_7_195 VGND VGND VPWR VPWR sky130_fd_sc_hd__fill_2