* NGSPICE file created from caravan.ext - technology: sky130A

* Black-box entry subcircuit for sky130_fd_sc_hd__dfbbn_1 abstract view
.subckt sky130_fd_sc_hd__dfbbn_1 CLK_N D RESET_B SET_B VGND VNB VPB VPWR Q Q_N
.ends

* Black-box entry subcircuit for sky130_fd_sc_hd__buf_1 abstract view
.subckt sky130_fd_sc_hd__buf_1 A VGND VNB VPB VPWR X
.ends

* Black-box entry subcircuit for sky130_fd_sc_hd__fill_1#0 abstract view
.subckt sky130_fd_sc_hd__fill_1#0 VGND VNB VPB VPWR
.ends

* Black-box entry subcircuit for sky130_fd_sc_hd__or2b_1 abstract view
.subckt sky130_fd_sc_hd__or2b_1 A B_N VGND VNB VPB VPWR X
.ends

* Black-box entry subcircuit for sky130_fd_sc_hd__diode_2 abstract view
.subckt sky130_fd_sc_hd__diode_2 DIODE VGND VNB VPB VPWR
.ends

* Black-box entry subcircuit for sky130_fd_sc_hd__buf_2 abstract view
.subckt sky130_fd_sc_hd__buf_2 A VGND VNB VPB VPWR X
.ends

* Black-box entry subcircuit for sky130_fd_sc_hd__fill_2#0 abstract view
.subckt sky130_fd_sc_hd__fill_2#0 VGND VNB VPB VPWR
.ends

* Black-box entry subcircuit for sky130_fd_sc_hd__clkdlybuf4s25_1 abstract view
.subckt sky130_fd_sc_hd__clkdlybuf4s25_1 A VGND VNB VPB VPWR X
.ends

* Black-box entry subcircuit for sky130_fd_sc_hd__clkbuf_1 abstract view
.subckt sky130_fd_sc_hd__clkbuf_1 A VGND VNB VPB VPWR X
.ends

* Black-box entry subcircuit for sky130_fd_sc_hd__or2_1 abstract view
.subckt sky130_fd_sc_hd__or2_1 A B VGND VNB VPB VPWR X
.ends

* Black-box entry subcircuit for sky130_fd_sc_hd__inv_2 abstract view
.subckt sky130_fd_sc_hd__inv_2 A VGND VNB VPB VPWR Y
.ends

* Black-box entry subcircuit for sky130_fd_sc_hd__decap_12#0 abstract view
.subckt sky130_fd_sc_hd__decap_12#0 VGND VNB VPB VPWR
.ends

* Black-box entry subcircuit for sky130_fd_sc_hd__and2_1 abstract view
.subckt sky130_fd_sc_hd__and2_1 A B VGND VNB VPB VPWR X
.ends

* Black-box entry subcircuit for sky130_fd_sc_hd__decap_3#0 abstract view
.subckt sky130_fd_sc_hd__decap_3#0 VGND VNB VPB VPWR
.ends

* Black-box entry subcircuit for sky130_fd_sc_hd__conb_1#0 abstract view
.subckt sky130_fd_sc_hd__conb_1#0 VGND VNB VPB VPWR HI LO
.ends

* Black-box entry subcircuit for sky130_fd_sc_hd__dfrtp_1 abstract view
.subckt sky130_fd_sc_hd__dfrtp_1 CLK D RESET_B VGND VNB VPB VPWR Q
.ends

* Black-box entry subcircuit for sky130_fd_sc_hd__einvp_2 abstract view
.subckt sky130_fd_sc_hd__einvp_2 A TE VGND VNB VPB VPWR Z
.ends

* Black-box entry subcircuit for sky130_fd_sc_hd__decap_6#0 abstract view
.subckt sky130_fd_sc_hd__decap_6#0 VGND VNB VPB VPWR
.ends

* Black-box entry subcircuit for sky130_fd_sc_hd__tapvpwrvgnd_1#0 abstract view
.subckt sky130_fd_sc_hd__tapvpwrvgnd_1#0 VGND VPWR
.ends

* Black-box entry subcircuit for sky130_fd_sc_hd__clkbuf_2 abstract view
.subckt sky130_fd_sc_hd__clkbuf_2 A VGND VNB VPB VPWR X
.ends

* Black-box entry subcircuit for sky130_fd_sc_hd__ebufn_1 abstract view
.subckt sky130_fd_sc_hd__ebufn_1 A TE_B VGND VNB VPB VPWR Z
.ends

* Black-box entry subcircuit for sky130_fd_sc_hd__mux2_1 abstract view
.subckt sky130_fd_sc_hd__mux2_1 A0 A1 S VGND VNB VPB VPWR X
.ends

.subckt sky130_fd_sc_hd__decap_6 VGND VPWR VNB VPB
X0 VPWR VGND VPWR VPB sky130_fd_pr__pfet_01v8_hvt ad=0p pd=0u as=0p ps=0u w=870000u l=1.97e+06u
X1 VGND VPWR VGND VNB sky130_fd_pr__nfet_01v8 ad=0p pd=0u as=0p ps=0u w=550000u l=1.97e+06u
.ends

.subckt sky130_fd_sc_hd__decap_8 VGND VPWR VNB VPB
X0 VPWR VGND VPWR VPB sky130_fd_pr__pfet_01v8_hvt ad=0p pd=0u as=0p ps=0u w=870000u l=2.89e+06u
X1 VGND VPWR VGND VNB sky130_fd_pr__nfet_01v8 ad=0p pd=0u as=0p ps=0u w=550000u l=2.89e+06u
.ends

.subckt sky130_fd_sc_hd__decap_3 VGND VPWR VNB VPB
X0 VPWR VGND VPWR VPB sky130_fd_pr__pfet_01v8_hvt ad=0p pd=0u as=0p ps=0u w=870000u l=590000u
X1 VGND VPWR VGND VNB sky130_fd_pr__nfet_01v8 ad=0p pd=0u as=0p ps=0u w=550000u l=590000u
.ends

.subckt sky130_fd_sc_hd__decap_4 VGND VPWR VNB VPB
X0 VPWR VGND VPWR VPB sky130_fd_pr__pfet_01v8_hvt ad=0p pd=0u as=0p ps=0u w=870000u l=1.05e+06u
X1 VGND VPWR VGND VNB sky130_fd_pr__nfet_01v8 ad=0p pd=0u as=0p ps=0u w=550000u l=1.05e+06u
.ends

.subckt sky130_fd_sc_hd__conb_1 VGND VNB VPB VPWR HI LO
R0 HI VPWR sky130_fd_pr__res_generic_po w=480000u l=45000u
R1 VGND LO sky130_fd_pr__res_generic_po w=480000u l=45000u
.ends

.subckt gpio_logic_high gpio_logic1 vccd1 vssd1
XFILLER_3_3 vssd1 vccd1 vssd1 vccd1 sky130_fd_sc_hd__decap_6
XFILLER_1_3 vssd1 vccd1 vssd1 vccd1 sky130_fd_sc_hd__decap_8
XPHY_0 vssd1 vccd1 vssd1 vccd1 sky130_fd_sc_hd__decap_3
XPHY_1 vssd1 vccd1 vssd1 vccd1 sky130_fd_sc_hd__decap_3
XPHY_2 vssd1 vccd1 vssd1 vccd1 sky130_fd_sc_hd__decap_3
XPHY_4 vssd1 vccd1 vssd1 vccd1 sky130_fd_sc_hd__decap_3
XPHY_3 vssd1 vccd1 vssd1 vccd1 sky130_fd_sc_hd__decap_3
XPHY_5 vssd1 vccd1 vssd1 vccd1 sky130_fd_sc_hd__decap_3
XPHY_6 vssd1 vccd1 vssd1 vccd1 sky130_fd_sc_hd__decap_3
XPHY_7 vssd1 vccd1 vssd1 vccd1 sky130_fd_sc_hd__decap_3
XPHY_8 vssd1 vccd1 vssd1 vccd1 sky130_fd_sc_hd__decap_3
XPHY_9 vssd1 vccd1 vssd1 vccd1 sky130_fd_sc_hd__decap_3
XFILLER_4_3 vssd1 vccd1 vssd1 vccd1 sky130_fd_sc_hd__decap_4
XFILLER_2_3 vssd1 vccd1 vssd1 vccd1 sky130_fd_sc_hd__decap_4
Xgpio_logic_high vssd1 vssd1 vccd1 vccd1 gpio_logic1 gpio_logic_high/LO sky130_fd_sc_hd__conb_1
XFILLER_4_9 vssd1 vccd1 vssd1 vccd1 sky130_fd_sc_hd__decap_3
XFILLER_0_3 vssd1 vccd1 vssd1 vccd1 sky130_fd_sc_hd__decap_4
XFILLER_2_9 vssd1 vccd1 vssd1 vccd1 sky130_fd_sc_hd__decap_3
XFILLER_0_9 vssd1 vccd1 vssd1 vccd1 sky130_fd_sc_hd__decap_3
.ends

* Black-box entry subcircuit for sky130_fd_sc_hd__buf_12 abstract view
.subckt sky130_fd_sc_hd__buf_12 A VGND VNB VPB VPWR X
.ends

* Black-box entry subcircuit for sky130_fd_sc_hd__clkbuf_16 abstract view
.subckt sky130_fd_sc_hd__clkbuf_16 A VGND VNB VPB VPWR X
.ends

* Black-box entry subcircuit for sky130_fd_sc_hd__decap_8#0 abstract view
.subckt sky130_fd_sc_hd__decap_8#0 VGND VNB VPB VPWR
.ends

* Black-box entry subcircuit for gpio_control_block abstract view
.subckt gpio_control_block gpio_defaults[0] gpio_defaults[10] gpio_defaults[11] gpio_defaults[12]
+ gpio_defaults[1] gpio_defaults[2] gpio_defaults[3] gpio_defaults[4] gpio_defaults[5]
+ gpio_defaults[6] gpio_defaults[7] gpio_defaults[8] gpio_defaults[9] mgmt_gpio_in
+ mgmt_gpio_oeb mgmt_gpio_out one pad_gpio_ana_en pad_gpio_ana_pol pad_gpio_ana_sel
+ pad_gpio_dm[0] pad_gpio_dm[1] pad_gpio_dm[2] pad_gpio_holdover pad_gpio_ib_mode_sel
+ pad_gpio_in pad_gpio_inenb pad_gpio_out pad_gpio_outenb pad_gpio_slow_sel pad_gpio_vtrip_sel
+ resetn resetn_out serial_clock serial_clock_out serial_data_in serial_data_out serial_load
+ serial_load_out user_gpio_in user_gpio_oeb user_gpio_out vccd vccd1 vssd vssd1 zero
.ends

* Black-box entry subcircuit for sky130_fd_sc_hd__decap_4#0 abstract view
.subckt sky130_fd_sc_hd__decap_4#0 VGND VNB VPB VPWR
.ends

* Black-box entry subcircuit for gpio_defaults_block abstract view
.subckt gpio_defaults_block VGND VPWR gpio_defaults[0] gpio_defaults[10] gpio_defaults[11]
+ gpio_defaults[12] gpio_defaults[1] gpio_defaults[2] gpio_defaults[3] gpio_defaults[4]
+ gpio_defaults[5] gpio_defaults[6] gpio_defaults[7] gpio_defaults[8] gpio_defaults[9]
.ends

* Black-box entry subcircuit for sky130_fd_sc_hd__or3_2 abstract view
.subckt sky130_fd_sc_hd__or3_2 A B C VGND VNB VPB VPWR X
.ends

* Black-box entry subcircuit for sky130_fd_sc_hd__dfrtp_2 abstract view
.subckt sky130_fd_sc_hd__dfrtp_2 CLK D RESET_B VGND VNB VPB VPWR Q
.ends

* Black-box entry subcircuit for sky130_fd_sc_hd__clkinv_1 abstract view
.subckt sky130_fd_sc_hd__clkinv_1 A VGND VNB VPB VPWR Y
.ends

* Black-box entry subcircuit for sky130_fd_sc_hd__a311o_2 abstract view
.subckt sky130_fd_sc_hd__a311o_2 A1 A2 A3 B1 C1 VGND VNB VPB VPWR X
.ends

* Black-box entry subcircuit for sky130_fd_sc_hd__a2bb2o_2 abstract view
.subckt sky130_fd_sc_hd__a2bb2o_2 A1_N A2_N B1 B2 VGND VNB VPB VPWR X
.ends

* Black-box entry subcircuit for sky130_fd_sc_hd__einvn_8 abstract view
.subckt sky130_fd_sc_hd__einvn_8 A TE_B VGND VNB VPB VPWR Z
.ends

* Black-box entry subcircuit for sky130_fd_sc_hd__o311a_2 abstract view
.subckt sky130_fd_sc_hd__o311a_2 A1 A2 A3 B1 C1 VGND VNB VPB VPWR X
.ends

* Black-box entry subcircuit for sky130_fd_sc_hd__or2_2 abstract view
.subckt sky130_fd_sc_hd__or2_2 A B VGND VNB VPB VPWR X
.ends

* Black-box entry subcircuit for sky130_fd_sc_hd__einvn_4 abstract view
.subckt sky130_fd_sc_hd__einvn_4 A TE_B VGND VNB VPB VPWR Z
.ends

* Black-box entry subcircuit for sky130_fd_sc_hd__nand2_2 abstract view
.subckt sky130_fd_sc_hd__nand2_2 A B VGND VNB VPB VPWR Y
.ends

* Black-box entry subcircuit for sky130_fd_sc_hd__o221a_2 abstract view
.subckt sky130_fd_sc_hd__o221a_2 A1 A2 B1 B2 C1 VGND VNB VPB VPWR X
.ends

* Black-box entry subcircuit for sky130_fd_sc_hd__a31o_2 abstract view
.subckt sky130_fd_sc_hd__a31o_2 A1 A2 A3 B1 VGND VNB VPB VPWR X
.ends

* Black-box entry subcircuit for sky130_fd_sc_hd__a22o_2 abstract view
.subckt sky130_fd_sc_hd__a22o_2 A1 A2 B1 B2 VGND VNB VPB VPWR X
.ends

* Black-box entry subcircuit for sky130_fd_sc_hd__a32o_2 abstract view
.subckt sky130_fd_sc_hd__a32o_2 A1 A2 A3 B1 B2 VGND VNB VPB VPWR X
.ends

* Black-box entry subcircuit for sky130_fd_sc_hd__o21ai_2 abstract view
.subckt sky130_fd_sc_hd__o21ai_2 A1 A2 B1 VGND VNB VPB VPWR Y
.ends

* Black-box entry subcircuit for sky130_fd_sc_hd__nor2_2 abstract view
.subckt sky130_fd_sc_hd__nor2_2 A B VGND VNB VPB VPWR Y
.ends

* Black-box entry subcircuit for sky130_fd_sc_hd__and4_2 abstract view
.subckt sky130_fd_sc_hd__and4_2 A B C D VGND VNB VPB VPWR X
.ends

* Black-box entry subcircuit for sky130_fd_sc_hd__o22a_2 abstract view
.subckt sky130_fd_sc_hd__o22a_2 A1 A2 B1 B2 VGND VNB VPB VPWR X
.ends

* Black-box entry subcircuit for sky130_fd_sc_hd__a221o_2 abstract view
.subckt sky130_fd_sc_hd__a221o_2 A1 A2 B1 B2 C1 VGND VNB VPB VPWR X
.ends

* Black-box entry subcircuit for sky130_fd_sc_hd__a21oi_2 abstract view
.subckt sky130_fd_sc_hd__a21oi_2 A1 A2 B1 VGND VNB VPB VPWR Y
.ends

* Black-box entry subcircuit for sky130_fd_sc_hd__o31a_2 abstract view
.subckt sky130_fd_sc_hd__o31a_2 A1 A2 A3 B1 VGND VNB VPB VPWR X
.ends

* Black-box entry subcircuit for sky130_fd_sc_hd__o221ai_2 abstract view
.subckt sky130_fd_sc_hd__o221ai_2 A1 A2 B1 B2 C1 VGND VNB VPB VPWR Y
.ends

* Black-box entry subcircuit for sky130_fd_sc_hd__einvp_1 abstract view
.subckt sky130_fd_sc_hd__einvp_1 A TE VGND VNB VPB VPWR Z
.ends

* Black-box entry subcircuit for sky130_fd_sc_hd__and3_2 abstract view
.subckt sky130_fd_sc_hd__and3_2 A B C VGND VNB VPB VPWR X
.ends

* Black-box entry subcircuit for sky130_fd_sc_hd__a21bo_2 abstract view
.subckt sky130_fd_sc_hd__a21bo_2 A1 A2 B1_N VGND VNB VPB VPWR X
.ends

* Black-box entry subcircuit for sky130_fd_sc_hd__o41a_2 abstract view
.subckt sky130_fd_sc_hd__o41a_2 A1 A2 A3 A4 B1 VGND VNB VPB VPWR X
.ends

* Black-box entry subcircuit for sky130_fd_sc_hd__o2bb2a_2 abstract view
.subckt sky130_fd_sc_hd__o2bb2a_2 A1_N A2_N B1 B2 VGND VNB VPB VPWR X
.ends

* Black-box entry subcircuit for sky130_fd_sc_hd__o21a_2 abstract view
.subckt sky130_fd_sc_hd__o21a_2 A1 A2 B1 VGND VNB VPB VPWR X
.ends

* Black-box entry subcircuit for sky130_fd_sc_hd__o22ai_2 abstract view
.subckt sky130_fd_sc_hd__o22ai_2 A1 A2 B1 B2 VGND VNB VPB VPWR Y
.ends

* Black-box entry subcircuit for sky130_fd_sc_hd__clkinv_2 abstract view
.subckt sky130_fd_sc_hd__clkinv_2 A VGND VNB VPB VPWR Y
.ends

* Black-box entry subcircuit for sky130_fd_sc_hd__o32a_2 abstract view
.subckt sky130_fd_sc_hd__o32a_2 A1 A2 A3 B1 B2 VGND VNB VPB VPWR X
.ends

* Black-box entry subcircuit for sky130_fd_sc_hd__clkinv_8 abstract view
.subckt sky130_fd_sc_hd__clkinv_8 A VGND VNB VPB VPWR Y
.ends

* Black-box entry subcircuit for sky130_fd_sc_hd__o211a_2 abstract view
.subckt sky130_fd_sc_hd__o211a_2 A1 A2 B1 C1 VGND VNB VPB VPWR X
.ends

* Black-box entry subcircuit for sky130_fd_sc_hd__a21o_2 abstract view
.subckt sky130_fd_sc_hd__a21o_2 A1 A2 B1 VGND VNB VPB VPWR X
.ends

* Black-box entry subcircuit for sky130_fd_sc_hd__o2111ai_2 abstract view
.subckt sky130_fd_sc_hd__o2111ai_2 A1 A2 B1 C1 D1 VGND VNB VPB VPWR Y
.ends

* Black-box entry subcircuit for sky130_fd_sc_hd__o2bb2ai_2 abstract view
.subckt sky130_fd_sc_hd__o2bb2ai_2 A1_N A2_N B1 B2 VGND VNB VPB VPWR Y
.ends

* Black-box entry subcircuit for sky130_fd_sc_hd__and2_2 abstract view
.subckt sky130_fd_sc_hd__and2_2 A B VGND VNB VPB VPWR X
.ends

* Black-box entry subcircuit for sky130_fd_sc_hd__or4_2 abstract view
.subckt sky130_fd_sc_hd__or4_2 A B C D VGND VNB VPB VPWR X
.ends

* Black-box entry subcircuit for sky130_fd_sc_hd__a22oi_2 abstract view
.subckt sky130_fd_sc_hd__a22oi_2 A1 A2 B1 B2 VGND VNB VPB VPWR Y
.ends

* Black-box entry subcircuit for digital_pll abstract view
.subckt digital_pll VGND VPWR clockp[0] clockp[1] dco div[0] div[1] div[2] div[3]
+ div[4] enable ext_trim[0] ext_trim[10] ext_trim[11] ext_trim[12] ext_trim[13] ext_trim[14]
+ ext_trim[15] ext_trim[16] ext_trim[17] ext_trim[18] ext_trim[19] ext_trim[1] ext_trim[20]
+ ext_trim[21] ext_trim[22] ext_trim[23] ext_trim[24] ext_trim[25] ext_trim[2] ext_trim[3]
+ ext_trim[4] ext_trim[5] ext_trim[6] ext_trim[7] ext_trim[8] ext_trim[9] osc resetb
.ends

* Black-box entry subcircuit for sky130_ef_io__com_bus_slice_20um abstract view
.subckt sky130_ef_io__com_bus_slice_20um AMUXBUS_A AMUXBUS_B VSSA VDDA VSWITCH VDDIO_Q
+ VCCHIB VDDIO VCCD VSSIO VSSD VSSIO_Q
.ends

* Black-box entry subcircuit for sky130_ef_io__gpiov2_pad_wrapped abstract view
.subckt sky130_ef_io__gpiov2_pad_wrapped IN_H PAD_A_NOESD_H PAD_A_ESD_0_H PAD_A_ESD_1_H
+ PAD DM[2] DM[1] DM[0] HLD_H_N IN INP_DIS IB_MODE_SEL ENABLE_H ENABLE_VDDA_H ENABLE_INP_H
+ OE_N TIE_HI_ESD TIE_LO_ESD SLOW VTRIP_SEL HLD_OVR ANALOG_EN ANALOG_SEL ENABLE_VDDIO
+ ENABLE_VSWITCH_H ANALOG_POL OUT AMUXBUS_A AMUXBUS_B VSSA VDDA VSWITCH VDDIO_Q VCCHIB
+ VDDIO VCCD VSSIO VSSD VSSIO_Q
.ends

* Black-box entry subcircuit for sky130_ef_io__com_bus_slice_1um abstract view
.subckt sky130_ef_io__com_bus_slice_1um AMUXBUS_A AMUXBUS_B VSSA VDDA VSWITCH VDDIO_Q
+ VCCHIB VDDIO VCCD VSSIO VSSD VSSIO_Q
.ends

* Black-box entry subcircuit for sky130_ef_io__com_bus_slice_10um abstract view
.subckt sky130_ef_io__com_bus_slice_10um AMUXBUS_A AMUXBUS_B VSSA VDDA VSWITCH VDDIO_Q
+ VCCHIB VDDIO VCCD VSSIO VSSD VSSIO_Q
.ends

* Black-box entry subcircuit for sky130_ef_io__vccd_lvc_clamped_pad abstract view
.subckt sky130_ef_io__vccd_lvc_clamped_pad AMUXBUS_A AMUXBUS_B VCCD_PAD VSSA VDDA
+ VSWITCH VDDIO_Q VCCHIB VDDIO VCCD VSSIO VSSD VSSIO_Q
.ends

* Black-box entry subcircuit for sky130_ef_io__com_bus_slice_5um abstract view
.subckt sky130_ef_io__com_bus_slice_5um AMUXBUS_A AMUXBUS_B VSSA VDDA VSWITCH VDDIO_Q
+ VCCHIB VDDIO VCCD VSSIO VSSD VSSIO_Q
.ends

* Black-box entry subcircuit for sky130_ef_io__analog_pad abstract view
.subckt sky130_ef_io__analog_pad P_CORE VSSA VSSD AMUXBUS_B AMUXBUS_A VDDIO_Q VDDIO
+ VSWITCH VSSIO VDDA VCCD VCCHIB VSSIO_Q P_PAD
.ends

* Black-box entry subcircuit for sky130_ef_io__disconnect_vdda_slice_5um abstract view
.subckt sky130_ef_io__disconnect_vdda_slice_5um AMUXBUS_A AMUXBUS_B VSWITCH VDDIO_Q
+ VCCHIB VDDIO VCCD VSSIO VSSD VSSIO_Q
.ends

* Black-box entry subcircuit for sky130_ef_io__corner_pad abstract view
.subckt sky130_ef_io__corner_pad AMUXBUS_A AMUXBUS_B VSSA VDDA VSWITCH VDDIO_Q VCCHIB
+ VDDIO VCCD VSSIO VSSD VSSIO_Q
.ends

* Black-box entry subcircuit for sky130_ef_io__vddio_hvc_clamped_pad abstract view
.subckt sky130_ef_io__vddio_hvc_clamped_pad AMUXBUS_A AMUXBUS_B VDDIO_PAD VSSA VDDA
+ VSWITCH VDDIO_Q VCCHIB VDDIO VCCD VSSIO VSSD VSSIO_Q
.ends

* Black-box entry subcircuit for sky130_ef_io__vssio_hvc_clamped_pad abstract view
.subckt sky130_ef_io__vssio_hvc_clamped_pad AMUXBUS_A AMUXBUS_B VSSIO_PAD VSSA VDDA
+ VSWITCH VDDIO_Q VCCHIB VDDIO VCCD VSSIO VSSD VSSIO_Q
.ends

* Black-box entry subcircuit for sky130_ef_io__connect_vcchib_vccd_and_vswitch_vddio_slice_20um abstract view
.subckt sky130_ef_io__connect_vcchib_vccd_and_vswitch_vddio_slice_20um AMUXBUS_A AMUXBUS_B
+ VSSA VDDA VDDIO_Q VDDIO VCCD VSSIO VSSD VSSIO_Q VSWITCH VCCHIB
.ends

* Black-box entry subcircuit for sky130_ef_io__vdda_hvc_clamped_pad abstract view
.subckt sky130_ef_io__vdda_hvc_clamped_pad AMUXBUS_A AMUXBUS_B VDDA_PAD VSSA VDDA
+ VSWITCH VDDIO_Q VCCHIB VDDIO VCCD VSSIO VSSD VSSIO_Q
.ends

* Black-box entry subcircuit for sky130_ef_io__top_power_hvc abstract view
.subckt sky130_ef_io__top_power_hvc AMUXBUS_A AMUXBUS_B DRN_HVC P_CORE P_PAD SRC_BDY_HVC
+ VSSA VDDA VSWITCH VDDIO_Q VCCHIB VDDIO VCCD VSSIO VSSD VSSIO_Q
.ends

* Black-box entry subcircuit for sky130_ef_io__vssd_lvc_clamped3_pad abstract view
.subckt sky130_ef_io__vssd_lvc_clamped3_pad AMUXBUS_A AMUXBUS_B VSSD_PAD VSSA VDDA
+ VSWITCH VDDIO_Q VCCHIB VDDIO VCCD VSSIO VSSD VSSIO_Q VCCD1 VSSD1
.ends

* Black-box entry subcircuit for sky130_ef_io__vssd_lvc_clamped_pad abstract view
.subckt sky130_ef_io__vssd_lvc_clamped_pad AMUXBUS_A AMUXBUS_B VSSD_PAD VSSA VDDA
+ VSWITCH VDDIO_Q VCCHIB VDDIO VCCD VSSIO VSSD VSSIO_Q
.ends

* Black-box entry subcircuit for sky130_ef_io__vccd_lvc_clamped3_pad abstract view
.subckt sky130_ef_io__vccd_lvc_clamped3_pad AMUXBUS_A AMUXBUS_B VCCD_PAD VSSA VDDA
+ VSWITCH VDDIO_Q VCCHIB VDDIO VCCD VSSIO VSSD VSSIO_Q VCCD1 VSSD1
.ends

* Black-box entry subcircuit for sky130_ef_io__vssa_hvc_clamped_pad abstract view
.subckt sky130_ef_io__vssa_hvc_clamped_pad AMUXBUS_A AMUXBUS_B VSSA_PAD VSSA VDDA
+ VSWITCH VDDIO_Q VCCHIB VDDIO VCCD VSSIO VSSD VSSIO_Q
.ends

* Black-box entry subcircuit for sky130_fd_io__top_xres4v2 abstract view
.subckt sky130_fd_io__top_xres4v2 PAD_A_ESD_H XRES_H_N FILT_IN_H ENABLE_VDDIO TIE_WEAK_HI_H
+ ENABLE_H PULLUP_H EN_VDDIO_SIG_H TIE_LO_ESD TIE_HI_ESD DISABLE_PULLUP_H INP_SEL_H
+ VSSIO VSSA VSSD AMUXBUS_B AMUXBUS_A VDDIO_Q VDDIO VSWITCH VDDA VCCD VCCHIB VSSIO_Q
+ PAD
.ends

* Black-box entry subcircuit for chip_io_alt abstract view
.subckt chip_io_alt clock clock_core por flash_clk flash_csb flash_io0 flash_io0_di_core
+ flash_io0_do_core flash_io0_ieb_core flash_io0_oeb_core flash_io1 flash_io1_di_core
+ flash_io1_do_core flash_io1_ieb_core flash_io1_oeb_core gpio gpio_in_core gpio_inenb_core
+ gpio_mode0_core gpio_mode1_core gpio_out_core gpio_outenb_core vccd_pad vdda_pad
+ vddio_pad vddio_pad2 vssa_pad vssd_pad vssio_pad vssio_pad2 mprj_io[0] mprj_io_analog_en[0]
+ mprj_io_analog_pol[0] mprj_io_analog_sel[0] mprj_io_dm[0] mprj_io_dm[1] mprj_io_dm[2]
+ mprj_io_holdover[0] mprj_io_ib_mode_sel[0] mprj_io_inp_dis[0] mprj_io_oeb[0] mprj_io_out[0]
+ mprj_io_slow_sel[0] mprj_io_vtrip_sel[0] mprj_io_in[0] mprj_io_in_3v3[0] mprj_gpio_analog[3]
+ mprj_gpio_noesd[3] mprj_io[10] mprj_io_analog_en[10] mprj_io_analog_pol[10] mprj_io_analog_sel[10]
+ mprj_io_dm[30] mprj_io_dm[31] mprj_io_dm[32] mprj_io_holdover[10] mprj_io_ib_mode_sel[10]
+ mprj_io_inp_dis[10] mprj_io_oeb[10] mprj_io_out[10] mprj_io_slow_sel[10] mprj_io_vtrip_sel[10]
+ mprj_io_in[10] mprj_io_in_3v3[10] mprj_gpio_analog[4] mprj_gpio_noesd[4] mprj_io[11]
+ mprj_io_analog_en[11] mprj_io_analog_pol[11] mprj_io_analog_sel[11] mprj_io_dm[33]
+ mprj_io_dm[34] mprj_io_dm[35] mprj_io_holdover[11] mprj_io_ib_mode_sel[11] mprj_io_inp_dis[11]
+ mprj_io_oeb[11] mprj_io_out[11] mprj_io_slow_sel[11] mprj_io_vtrip_sel[11] mprj_io_in[11]
+ mprj_io_in_3v3[11] mprj_gpio_analog[5] mprj_gpio_noesd[5] mprj_io[12] mprj_io_analog_en[12]
+ mprj_io_analog_pol[12] mprj_io_analog_sel[12] mprj_io_dm[36] mprj_io_dm[37] mprj_io_dm[38]
+ mprj_io_holdover[12] mprj_io_ib_mode_sel[12] mprj_io_inp_dis[12] mprj_io_oeb[12]
+ mprj_io_out[12] mprj_io_slow_sel[12] mprj_io_vtrip_sel[12] mprj_io_in[12] mprj_io_in_3v3[12]
+ mprj_gpio_analog[6] mprj_gpio_noesd[6] mprj_io[13] mprj_io_analog_en[13] mprj_io_analog_pol[13]
+ mprj_io_analog_sel[13] mprj_io_dm[39] mprj_io_dm[40] mprj_io_dm[41] mprj_io_holdover[13]
+ mprj_io_ib_mode_sel[13] mprj_io_inp_dis[13] mprj_io_oeb[13] mprj_io_out[13] mprj_io_slow_sel[13]
+ mprj_io_vtrip_sel[13] mprj_io_in[13] mprj_io_in_3v3[13] mprj_io[1] mprj_io_analog_en[1]
+ mprj_io_analog_pol[1] mprj_io_analog_sel[1] mprj_io_dm[3] mprj_io_dm[4] mprj_io_dm[5]
+ mprj_io_holdover[1] mprj_io_ib_mode_sel[1] mprj_io_inp_dis[1] mprj_io_oeb[1] mprj_io_out[1]
+ mprj_io_slow_sel[1] mprj_io_vtrip_sel[1] mprj_io_in[1] mprj_io_in_3v3[1] mprj_io[2]
+ mprj_io_analog_en[2] mprj_io_analog_pol[2] mprj_io_analog_sel[2] mprj_io_dm[6] mprj_io_dm[7]
+ mprj_io_dm[8] mprj_io_holdover[2] mprj_io_ib_mode_sel[2] mprj_io_inp_dis[2] mprj_io_oeb[2]
+ mprj_io_out[2] mprj_io_slow_sel[2] mprj_io_vtrip_sel[2] mprj_io_in[2] mprj_io_in_3v3[2]
+ mprj_io[3] mprj_io_analog_en[3] mprj_io_analog_pol[3] mprj_io_analog_sel[3] mprj_io_dm[10]
+ mprj_io_dm[11] mprj_io_dm[9] mprj_io_holdover[3] mprj_io_ib_mode_sel[3] mprj_io_inp_dis[3]
+ mprj_io_oeb[3] mprj_io_out[3] mprj_io_slow_sel[3] mprj_io_vtrip_sel[3] mprj_io_in[3]
+ mprj_io_in_3v3[3] mprj_io[4] mprj_io_analog_en[4] mprj_io_analog_pol[4] mprj_io_analog_sel[4]
+ mprj_io_dm[12] mprj_io_dm[13] mprj_io_dm[14] mprj_io_holdover[4] mprj_io_ib_mode_sel[4]
+ mprj_io_inp_dis[4] mprj_io_oeb[4] mprj_io_out[4] mprj_io_slow_sel[4] mprj_io_vtrip_sel[4]
+ mprj_io_in[4] mprj_io_in_3v3[4] mprj_io[5] mprj_io_analog_en[5] mprj_io_analog_pol[5]
+ mprj_io_analog_sel[5] mprj_io_dm[15] mprj_io_dm[16] mprj_io_dm[17] mprj_io_holdover[5]
+ mprj_io_ib_mode_sel[5] mprj_io_inp_dis[5] mprj_io_oeb[5] mprj_io_out[5] mprj_io_slow_sel[5]
+ mprj_io_vtrip_sel[5] mprj_io_in[5] mprj_io_in_3v3[5] mprj_io[6] mprj_io_analog_en[6]
+ mprj_io_analog_pol[6] mprj_io_analog_sel[6] mprj_io_dm[18] mprj_io_dm[19] mprj_io_dm[20]
+ mprj_io_holdover[6] mprj_io_ib_mode_sel[6] mprj_io_inp_dis[6] mprj_io_oeb[6] mprj_io_out[6]
+ mprj_io_slow_sel[6] mprj_io_vtrip_sel[6] mprj_io_in[6] mprj_io_in_3v3[6] mprj_gpio_analog[0]
+ mprj_gpio_noesd[0] mprj_io[7] mprj_io_analog_en[7] mprj_io_analog_pol[7] mprj_io_analog_sel[7]
+ mprj_io_dm[21] mprj_io_dm[22] mprj_io_dm[23] mprj_io_holdover[7] mprj_io_ib_mode_sel[7]
+ mprj_io_inp_dis[7] mprj_io_oeb[7] mprj_io_out[7] mprj_io_slow_sel[7] mprj_io_vtrip_sel[7]
+ mprj_io_in[7] mprj_io_in_3v3[7] mprj_gpio_analog[1] mprj_gpio_noesd[1] mprj_io[8]
+ mprj_io_analog_en[8] mprj_io_analog_pol[8] mprj_io_analog_sel[8] mprj_io_dm[24]
+ mprj_io_dm[25] mprj_io_dm[26] mprj_io_holdover[8] mprj_io_ib_mode_sel[8] mprj_io_inp_dis[8]
+ mprj_io_oeb[8] mprj_io_out[8] mprj_io_slow_sel[8] mprj_io_vtrip_sel[8] mprj_io_in[8]
+ mprj_io_in_3v3[8] mprj_gpio_analog[2] mprj_gpio_noesd[2] mprj_io[9] mprj_io_analog_en[9]
+ mprj_io_analog_pol[9] mprj_io_analog_sel[9] mprj_io_dm[27] mprj_io_dm[28] mprj_io_dm[29]
+ mprj_io_holdover[9] mprj_io_ib_mode_sel[9] mprj_io_inp_dis[9] mprj_io_oeb[9] mprj_io_out[9]
+ mprj_io_slow_sel[9] mprj_io_vtrip_sel[9] mprj_io_in[9] mprj_io_in_3v3[9] mprj_gpio_analog[7]
+ mprj_gpio_noesd[7] mprj_io[25] mprj_io_analog_en[14] mprj_io_analog_pol[14] mprj_io_analog_sel[14]
+ mprj_io_dm[42] mprj_io_dm[43] mprj_io_dm[44] mprj_io_holdover[14] mprj_io_ib_mode_sel[14]
+ mprj_io_inp_dis[14] mprj_io_oeb[14] mprj_io_out[14] mprj_io_slow_sel[14] mprj_io_vtrip_sel[14]
+ mprj_io_in[14] mprj_io_in_3v3[14] mprj_gpio_analog[17] mprj_gpio_noesd[17] mprj_io[35]
+ mprj_io_analog_en[24] mprj_io_analog_pol[24] mprj_io_analog_sel[24] mprj_io_dm[72]
+ mprj_io_dm[73] mprj_io_dm[74] mprj_io_holdover[24] mprj_io_ib_mode_sel[24] mprj_io_inp_dis[24]
+ mprj_io_oeb[24] mprj_io_out[24] mprj_io_slow_sel[24] mprj_io_vtrip_sel[24] mprj_io_in[24]
+ mprj_io_in_3v3[24] mprj_io[36] mprj_io_analog_en[25] mprj_io_analog_pol[25] mprj_io_analog_sel[25]
+ mprj_io_dm[75] mprj_io_dm[76] mprj_io_dm[77] mprj_io_holdover[25] mprj_io_ib_mode_sel[25]
+ mprj_io_inp_dis[25] mprj_io_oeb[25] mprj_io_out[25] mprj_io_slow_sel[25] mprj_io_vtrip_sel[25]
+ mprj_io_in[25] mprj_io_in_3v3[25] mprj_io[37] mprj_io_analog_en[26] mprj_io_analog_pol[26]
+ mprj_io_analog_sel[26] mprj_io_dm[78] mprj_io_dm[79] mprj_io_dm[80] mprj_io_holdover[26]
+ mprj_io_ib_mode_sel[26] mprj_io_inp_dis[26] mprj_io_oeb[26] mprj_io_out[26] mprj_io_slow_sel[26]
+ mprj_io_vtrip_sel[26] mprj_io_in[26] mprj_io_in_3v3[26] mprj_gpio_analog[8] mprj_gpio_noesd[8]
+ mprj_io[26] mprj_io_analog_en[15] mprj_io_analog_pol[15] mprj_io_analog_sel[15]
+ mprj_io_dm[45] mprj_io_dm[46] mprj_io_dm[47] mprj_io_holdover[15] mprj_io_ib_mode_sel[15]
+ mprj_io_inp_dis[15] mprj_io_oeb[15] mprj_io_out[15] mprj_io_slow_sel[15] mprj_io_vtrip_sel[15]
+ mprj_io_in[15] mprj_io_in_3v3[15] mprj_gpio_analog[9] mprj_gpio_noesd[9] mprj_io[27]
+ mprj_io_analog_en[16] mprj_io_analog_pol[16] mprj_io_analog_sel[16] mprj_io_dm[48]
+ mprj_io_dm[49] mprj_io_dm[50] mprj_io_holdover[16] mprj_io_ib_mode_sel[16] mprj_io_inp_dis[16]
+ mprj_io_oeb[16] mprj_io_out[16] mprj_io_slow_sel[16] mprj_io_vtrip_sel[16] mprj_io_in[16]
+ mprj_io_in_3v3[16] mprj_gpio_analog[10] mprj_gpio_noesd[10] mprj_io[28] mprj_io_analog_en[17]
+ mprj_io_analog_pol[17] mprj_io_analog_sel[17] mprj_io_dm[51] mprj_io_dm[52] mprj_io_dm[53]
+ mprj_io_holdover[17] mprj_io_ib_mode_sel[17] mprj_io_inp_dis[17] mprj_io_oeb[17]
+ mprj_io_out[17] mprj_io_slow_sel[17] mprj_io_vtrip_sel[17] mprj_io_in[17] mprj_io_in_3v3[17]
+ mprj_gpio_analog[11] mprj_gpio_noesd[11] mprj_io[29] mprj_io_analog_en[18] mprj_io_analog_pol[18]
+ mprj_io_analog_sel[18] mprj_io_dm[54] mprj_io_dm[55] mprj_io_dm[56] mprj_io_holdover[18]
+ mprj_io_ib_mode_sel[18] mprj_io_inp_dis[18] mprj_io_oeb[18] mprj_io_out[18] mprj_io_slow_sel[18]
+ mprj_io_vtrip_sel[18] mprj_io_in[18] mprj_io_in_3v3[18] mprj_gpio_analog[12] mprj_gpio_noesd[12]
+ mprj_io[30] mprj_io_analog_en[19] mprj_io_analog_pol[19] mprj_io_analog_sel[19]
+ mprj_io_dm[57] mprj_io_dm[58] mprj_io_dm[59] mprj_io_holdover[19] mprj_io_ib_mode_sel[19]
+ mprj_io_inp_dis[19] mprj_io_oeb[19] mprj_io_out[19] mprj_io_slow_sel[19] mprj_io_vtrip_sel[19]
+ mprj_io_in[19] mprj_io_in_3v3[19] mprj_gpio_analog[13] mprj_gpio_noesd[13] mprj_io[31]
+ mprj_io_analog_en[20] mprj_io_analog_pol[20] mprj_io_analog_sel[20] mprj_io_dm[60]
+ mprj_io_dm[61] mprj_io_dm[62] mprj_io_holdover[20] mprj_io_ib_mode_sel[20] mprj_io_inp_dis[20]
+ mprj_io_oeb[20] mprj_io_out[20] mprj_io_slow_sel[20] mprj_io_vtrip_sel[20] mprj_io_in[20]
+ mprj_io_in_3v3[20] mprj_gpio_analog[14] mprj_gpio_noesd[14] mprj_io[32] mprj_io_analog_en[21]
+ mprj_io_analog_pol[21] mprj_io_analog_sel[21] mprj_io_dm[63] mprj_io_dm[64] mprj_io_dm[65]
+ mprj_io_holdover[21] mprj_io_ib_mode_sel[21] mprj_io_inp_dis[21] mprj_io_oeb[21]
+ mprj_io_out[21] mprj_io_slow_sel[21] mprj_io_vtrip_sel[21] mprj_io_in[21] mprj_io_in_3v3[21]
+ mprj_gpio_analog[15] mprj_gpio_noesd[15] mprj_io[33] mprj_io_analog_en[22] mprj_io_analog_pol[22]
+ mprj_io_analog_sel[22] mprj_io_dm[66] mprj_io_dm[67] mprj_io_dm[68] mprj_io_holdover[22]
+ mprj_io_ib_mode_sel[22] mprj_io_inp_dis[22] mprj_io_oeb[22] mprj_io_out[22] mprj_io_slow_sel[22]
+ mprj_io_vtrip_sel[22] mprj_io_in[22] mprj_io_in_3v3[22] mprj_gpio_analog[16] mprj_gpio_noesd[16]
+ mprj_io[34] mprj_io_analog_en[23] mprj_io_analog_pol[23] mprj_io_analog_sel[23]
+ mprj_io_dm[69] mprj_io_dm[70] mprj_io_dm[71] mprj_io_holdover[23] mprj_io_ib_mode_sel[23]
+ mprj_io_inp_dis[23] mprj_io_oeb[23] mprj_io_out[23] mprj_io_slow_sel[23] mprj_io_vtrip_sel[23]
+ mprj_io_in[23] mprj_io_in_3v3[23] porb_h resetb resetb_core_h vdda vssa vssd mprj_analog[1]
+ mprj_io[15] mprj_analog[2] mprj_io[16] mprj_analog[3] mprj_io[17] mprj_analog[0]
+ mprj_io[14] mprj_analog[4] mprj_clamp_high[0] mprj_clamp_low[0] mprj_io[18] vccd1_pad
+ vdda1_pad vdda1_pad2 vssa1_pad vssa1_pad2 vccd1 vdda1 vssa1 vssd1 vssd1_pad mprj_analog[7]
+ mprj_io[21] mprj_analog[8] mprj_io[22] mprj_analog[9] mprj_io[23] mprj_analog[10]
+ mprj_io[24] mprj_analog[5] mprj_clamp_high[1] mprj_clamp_low[1] mprj_io[19] mprj_analog[6]
+ mprj_clamp_high[2] mprj_clamp_low[2] mprj_io[20] vccd2_pad vdda2_pad vssa2_pad vccd
+ vccd2 vdda2 vddio vssa2 vssd2 vssd2_pad vssio flash_csb_core flash_clk_ieb_core
+ flash_clk_oeb_core flash_clk_core flash_csb_oeb_core flash_csb_ieb_core
.ends

* Black-box entry subcircuit for sky130_fd_sc_hd__dfbbp_1 abstract view
.subckt sky130_fd_sc_hd__dfbbp_1 CLK D RESET_B SET_B VGND VNB VPB VPWR Q Q_N
.ends

* Black-box entry subcircuit for sky130_fd_sc_hd__mux2_2 abstract view
.subckt sky130_fd_sc_hd__mux2_2 A0 A1 S VGND VNB VPB VPWR X
.ends

* Black-box entry subcircuit for sky130_fd_sc_hd__inv_8 abstract view
.subckt sky130_fd_sc_hd__inv_8 A VGND VNB VPB VPWR Y
.ends

* Black-box entry subcircuit for spare_logic_block abstract view
.subckt spare_logic_block spare_xfq[0] spare_xfq[1] spare_xfqn[0] spare_xfqn[1] spare_xi[0]
+ spare_xi[1] spare_xi[2] spare_xi[3] spare_xib spare_xmx[0] spare_xmx[1] spare_xna[0]
+ spare_xna[1] spare_xno[0] spare_xno[1] spare_xz[0] spare_xz[10] spare_xz[11] spare_xz[12]
+ spare_xz[13] spare_xz[14] spare_xz[15] spare_xz[16] spare_xz[17] spare_xz[18] spare_xz[19]
+ spare_xz[1] spare_xz[20] spare_xz[21] spare_xz[22] spare_xz[23] spare_xz[24] spare_xz[25]
+ spare_xz[26] spare_xz[2] spare_xz[3] spare_xz[4] spare_xz[5] spare_xz[6] spare_xz[7]
+ spare_xz[8] spare_xz[9] vccd vssd
.ends

* Black-box entry subcircuit for mgmt_core_wrapper abstract view
.subckt mgmt_core_wrapper VGND VPWR core_clk core_rstn debug_in debug_mode debug_oeb
+ debug_out flash_clk flash_csb flash_io0_di flash_io0_do flash_io0_oeb flash_io1_di
+ flash_io1_do flash_io1_oeb flash_io2_di flash_io2_do flash_io2_oeb flash_io3_di
+ flash_io3_do flash_io3_oeb gpio_in_pad gpio_inenb_pad gpio_mode0_pad gpio_mode1_pad
+ gpio_out_pad gpio_outenb_pad hk_ack_i hk_cyc_o hk_dat_i[0] hk_dat_i[10] hk_dat_i[11]
+ hk_dat_i[12] hk_dat_i[13] hk_dat_i[14] hk_dat_i[15] hk_dat_i[16] hk_dat_i[17] hk_dat_i[18]
+ hk_dat_i[19] hk_dat_i[1] hk_dat_i[20] hk_dat_i[21] hk_dat_i[22] hk_dat_i[23] hk_dat_i[24]
+ hk_dat_i[25] hk_dat_i[26] hk_dat_i[27] hk_dat_i[28] hk_dat_i[29] hk_dat_i[2] hk_dat_i[30]
+ hk_dat_i[31] hk_dat_i[3] hk_dat_i[4] hk_dat_i[5] hk_dat_i[6] hk_dat_i[7] hk_dat_i[8]
+ hk_dat_i[9] hk_stb_o irq[0] irq[1] irq[2] irq[3] irq[4] irq[5] la_iena[0] la_iena[100]
+ la_iena[101] la_iena[102] la_iena[103] la_iena[104] la_iena[105] la_iena[106] la_iena[107]