* NGSPICE file created from caravel_clocking.ext - technology: sky130A

* Black-box entry subcircuit for sky130_fd_sc_hd__tapvpwrvgnd_1 abstract view
.subckt sky130_fd_sc_hd__tapvpwrvgnd_1 VGND VPWR
.ends

* Black-box entry subcircuit for sky130_fd_sc_hd__fill_1 abstract view
.subckt sky130_fd_sc_hd__fill_1 VGND VNB VPB VPWR
.ends

* Black-box entry subcircuit for sky130_fd_sc_hd__a41oi_1 abstract view
.subckt sky130_fd_sc_hd__a41oi_1 A1 A2 A3 A4 B1 VGND VNB VPB VPWR Y
.ends

* Black-box entry subcircuit for sky130_fd_sc_hd__nand3b_1 abstract view
.subckt sky130_fd_sc_hd__nand3b_1 A_N B C VGND VNB VPB VPWR Y
.ends

* Black-box entry subcircuit for sky130_fd_sc_hd__dfstp_1 abstract view
.subckt sky130_fd_sc_hd__dfstp_1 CLK D SET_B VGND VNB VPB VPWR Q
.ends

* Black-box entry subcircuit for sky130_fd_sc_hd__o21ai_1 abstract view
.subckt sky130_fd_sc_hd__o21ai_1 A1 A2 B1 VGND VNB VPB VPWR Y
.ends

* Black-box entry subcircuit for sky130_fd_sc_hd__o2111ai_4 abstract view
.subckt sky130_fd_sc_hd__o2111ai_4 A1 A2 B1 C1 D1 VGND VNB VPB VPWR Y
.ends

* Black-box entry subcircuit for sky130_fd_sc_hd__or3_1 abstract view
.subckt sky130_fd_sc_hd__or3_1 A B C VGND VNB VPB VPWR X
.ends

* Black-box entry subcircuit for sky130_fd_sc_hd__clkbuf_16 abstract view
.subckt sky130_fd_sc_hd__clkbuf_16 A VGND VNB VPB VPWR X
.ends

* Black-box entry subcircuit for sky130_fd_sc_hd__diode_2 abstract view
.subckt sky130_fd_sc_hd__diode_2 DIODE VGND VNB VPB VPWR
.ends

* Black-box entry subcircuit for sky130_fd_sc_hd__fill_2 abstract view
.subckt sky130_fd_sc_hd__fill_2 VGND VNB VPB VPWR
.ends

* Black-box entry subcircuit for sky130_fd_sc_hd__dfrtn_1 abstract view
.subckt sky130_fd_sc_hd__dfrtn_1 CLK_N D RESET_B VGND VNB VPB VPWR Q
.ends

* Black-box entry subcircuit for sky130_fd_sc_hd__o2111a_1 abstract view
.subckt sky130_fd_sc_hd__o2111a_1 A1 A2 B1 C1 D1 VGND VNB VPB VPWR X
.ends

* Black-box entry subcircuit for sky130_fd_sc_hd__o22a_1 abstract view
.subckt sky130_fd_sc_hd__o22a_1 A1 A2 B1 B2 VGND VNB VPB VPWR X
.ends

* Black-box entry subcircuit for sky130_fd_sc_hd__o21a_4 abstract view
.subckt sky130_fd_sc_hd__o21a_4 A1 A2 B1 VGND VNB VPB VPWR X
.ends

* Black-box entry subcircuit for sky130_ef_sc_hd__decap_12 abstract view
.subckt sky130_ef_sc_hd__decap_12 VGND VNB VPB VPWR
.ends

* Black-box entry subcircuit for sky130_fd_sc_hd__xnor2_1 abstract view
.subckt sky130_fd_sc_hd__xnor2_1 A B VGND VNB VPB VPWR Y
.ends

* Black-box entry subcircuit for sky130_fd_sc_hd__clkinv_4 abstract view
.subckt sky130_fd_sc_hd__clkinv_4 A VGND VNB VPB VPWR Y
.ends

* Black-box entry subcircuit for sky130_fd_sc_hd__nor3b_2 abstract view
.subckt sky130_fd_sc_hd__nor3b_2 A B C_N VGND VNB VPB VPWR Y
.ends

* Black-box entry subcircuit for sky130_fd_sc_hd__nor2_1 abstract view
.subckt sky130_fd_sc_hd__nor2_1 A B VGND VNB VPB VPWR Y
.ends

* Black-box entry subcircuit for sky130_fd_sc_hd__clkinv_2 abstract view
.subckt sky130_fd_sc_hd__clkinv_2 A VGND VNB VPB VPWR Y
.ends

* Black-box entry subcircuit for sky130_fd_sc_hd__nand2_1 abstract view
.subckt sky130_fd_sc_hd__nand2_1 A B VGND VNB VPB VPWR Y
.ends

* Black-box entry subcircuit for sky130_fd_sc_hd__decap_4 abstract view
.subckt sky130_fd_sc_hd__decap_4 VGND VNB VPB VPWR
.ends

* Black-box entry subcircuit for sky130_fd_sc_hd__buf_12 abstract view
.subckt sky130_fd_sc_hd__buf_12 A VGND VNB VPB VPWR X
.ends

* Black-box entry subcircuit for sky130_fd_sc_hd__inv_2 abstract view
.subckt sky130_fd_sc_hd__inv_2 A VGND VNB VPB VPWR Y
.ends

* Black-box entry subcircuit for sky130_fd_sc_hd__and2_1 abstract view
.subckt sky130_fd_sc_hd__and2_1 A B VGND VNB VPB VPWR X
.ends

* Black-box entry subcircuit for sky130_fd_sc_hd__and2b_2 abstract view
.subckt sky130_fd_sc_hd__and2b_2 A_N B VGND VNB VPB VPWR X
.ends

* Black-box entry subcircuit for sky130_fd_sc_hd__mux2_1 abstract view
.subckt sky130_fd_sc_hd__mux2_1 A0 A1 S VGND VNB VPB VPWR X
.ends

* Black-box entry subcircuit for sky130_fd_sc_hd__nor3_2 abstract view
.subckt sky130_fd_sc_hd__nor3_2 A B C VGND VNB VPB VPWR Y
.ends

* Black-box entry subcircuit for sky130_fd_sc_hd__or2_1 abstract view
.subckt sky130_fd_sc_hd__or2_1 A B VGND VNB VPB VPWR X
.ends

* Black-box entry subcircuit for sky130_fd_sc_hd__inv_4 abstract view
.subckt sky130_fd_sc_hd__inv_4 A VGND VNB VPB VPWR Y
.ends

* Black-box entry subcircuit for sky130_fd_sc_hd__decap_3 abstract view
.subckt sky130_fd_sc_hd__decap_3 VGND VNB VPB VPWR
.ends

* Black-box entry subcircuit for sky130_fd_sc_hd__a21o_1 abstract view
.subckt sky130_fd_sc_hd__a21o_1 A1 A2 B1 VGND VNB VPB VPWR X
.ends

* Black-box entry subcircuit for sky130_fd_sc_hd__dfrtp_1 abstract view
.subckt sky130_fd_sc_hd__dfrtp_1 CLK D RESET_B VGND VNB VPB VPWR Q
.ends

* Black-box entry subcircuit for sky130_fd_sc_hd__o21bai_1 abstract view
.subckt sky130_fd_sc_hd__o21bai_1 A1 A2 B1_N VGND VNB VPB VPWR Y
.ends

* Black-box entry subcircuit for sky130_fd_sc_hd__o21a_1 abstract view
.subckt sky130_fd_sc_hd__o21a_1 A1 A2 B1 VGND VNB VPB VPWR X
.ends

* Black-box entry subcircuit for sky130_fd_sc_hd__o31ai_1 abstract view
.subckt sky130_fd_sc_hd__o31ai_1 A1 A2 A3 B1 VGND VNB VPB VPWR Y
.ends

* Black-box entry subcircuit for sky130_fd_sc_hd__dfxtp_1 abstract view
.subckt sky130_fd_sc_hd__dfxtp_1 CLK D VGND VNB VPB VPWR Q
.ends

* Black-box entry subcircuit for sky130_fd_sc_hd__dfstp_2 abstract view
.subckt sky130_fd_sc_hd__dfstp_2 CLK D SET_B VGND VNB VPB VPWR Q
.ends

* Black-box entry subcircuit for sky130_fd_sc_hd__clkbuf_2 abstract view
.subckt sky130_fd_sc_hd__clkbuf_2 A VGND VNB VPB VPWR X
.ends

* Black-box entry subcircuit for sky130_fd_sc_hd__clkbuf_4 abstract view
.subckt sky130_fd_sc_hd__clkbuf_4 A VGND VNB VPB VPWR X
.ends

* Black-box entry subcircuit for sky130_fd_sc_hd__o31a_1 abstract view
.subckt sky130_fd_sc_hd__o31a_1 A1 A2 A3 B1 VGND VNB VPB VPWR X
.ends

* Black-box entry subcircuit for sky130_fd_sc_hd__nor4_1 abstract view
.subckt sky130_fd_sc_hd__nor4_1 A B C D VGND VNB VPB VPWR Y
.ends

* Black-box entry subcircuit for sky130_fd_sc_hd__decap_8 abstract view
.subckt sky130_fd_sc_hd__decap_8 VGND VNB VPB VPWR
.ends

* Black-box entry subcircuit for sky130_fd_sc_hd__clkbuf_1 abstract view
.subckt sky130_fd_sc_hd__clkbuf_1 A VGND VNB VPB VPWR X
.ends

* Black-box entry subcircuit for sky130_fd_sc_hd__dfrtp_4 abstract view
.subckt sky130_fd_sc_hd__dfrtp_4 CLK D RESET_B VGND VNB VPB VPWR Q
.ends

* Black-box entry subcircuit for sky130_fd_sc_hd__nand3_1 abstract view
.subckt sky130_fd_sc_hd__nand3_1 A B C VGND VNB VPB VPWR Y
.ends

* Black-box entry subcircuit for sky130_fd_sc_hd__buf_4 abstract view
.subckt sky130_fd_sc_hd__buf_4 A VGND VNB VPB VPWR X
.ends

* Black-box entry subcircuit for sky130_fd_sc_hd__nand2b_1 abstract view
.subckt sky130_fd_sc_hd__nand2b_1 A_N B VGND VNB VPB VPWR Y
.ends

* Black-box entry subcircuit for sky130_fd_sc_hd__buf_2 abstract view
.subckt sky130_fd_sc_hd__buf_2 A VGND VNB VPB VPWR X
.ends

* Black-box entry subcircuit for sky130_fd_sc_hd__nand4b_1 abstract view
.subckt sky130_fd_sc_hd__nand4b_1 A_N B C D VGND VNB VPB VPWR Y
.ends

* Black-box entry subcircuit for sky130_fd_sc_hd__nor3_1 abstract view
.subckt sky130_fd_sc_hd__nor3_1 A B C VGND VNB VPB VPWR Y
.ends

* Black-box entry subcircuit for sky130_fd_sc_hd__a31oi_2 abstract view
.subckt sky130_fd_sc_hd__a31oi_2 A1 A2 A3 B1 VGND VNB VPB VPWR Y
.ends

* Black-box entry subcircuit for sky130_fd_sc_hd__a21oi_1 abstract view
.subckt sky130_fd_sc_hd__a21oi_1 A1 A2 B1 VGND VNB VPB VPWR Y
.ends

* Black-box entry subcircuit for sky130_fd_sc_hd__o2111ai_1 abstract view
.subckt sky130_fd_sc_hd__o2111ai_1 A1 A2 B1 C1 D1 VGND VNB VPB VPWR Y
.ends

* Black-box entry subcircuit for sky130_fd_sc_hd__decap_6 abstract view
.subckt sky130_fd_sc_hd__decap_6 VGND VNB VPB VPWR
.ends

* Black-box entry subcircuit for sky130_fd_sc_hd__a31o_2 abstract view
.subckt sky130_fd_sc_hd__a31o_2 A1 A2 A3 B1 VGND VNB VPB VPWR X
.ends

* Black-box entry subcircuit for sky130_fd_sc_hd__dfrtp_2 abstract view
.subckt sky130_fd_sc_hd__dfrtp_2 CLK D RESET_B VGND VNB VPB VPWR Q
.ends

* Black-box entry subcircuit for sky130_fd_sc_hd__conb_1 abstract view
.subckt sky130_fd_sc_hd__conb_1 VGND VNB VPB VPWR HI LO
.ends

.subckt caravel_clocking VGND VPWR core_clk ext_clk ext_clk_sel ext_reset pll_clk
+ pll_clk90 resetb resetb_sync sel2[0] sel2[1] sel2[2] sel[0] sel[1] sel[2] user_clk
XTAP_188 VGND VPWR sky130_fd_sc_hd__tapvpwrvgnd_1
XTAP_177 VGND VPWR sky130_fd_sc_hd__tapvpwrvgnd_1
XFILLER_13_199 VGND VGND VPWR VPWR sky130_fd_sc_hd__fill_1
XFILLER_3_45 VGND VGND VPWR VPWR sky130_fd_sc_hd__fill_1
XFILLER_3_56 VGND VGND VPWR VPWR sky130_fd_sc_hd__fill_1
X_294_ _287_/Y _301_/B _292_/Y _251_/Y _227_/S VGND VGND VPWR VPWR _294_/Y sky130_fd_sc_hd__a41oi_1
X_363_ _301_/A _365_/B _429_/Q VGND VGND VPWR VPWR _363_/Y sky130_fd_sc_hd__nand3b_1
X_432_ _432_/CLK _432_/D _380_/S VGND VGND VPWR VPWR _432_/Q sky130_fd_sc_hd__dfstp_1
X_346_ _462_/Q _461_/Q _463_/Q VGND VGND VPWR VPWR _347_/B sky130_fd_sc_hd__o21ai_1
XFILLER_12_54 VGND VGND VPWR VPWR sky130_fd_sc_hd__fill_1
X_277_ _335_/A _450_/D _408_/A _259_/Y _247_/Y VGND VGND VPWR VPWR _393_/B sky130_fd_sc_hd__o2111ai_4
X_329_ _436_/Q _437_/Q _438_/Q VGND VGND VPWR VPWR _331_/A sky130_fd_sc_hd__or3_1
XFILLER_18_53 VGND VGND VPWR VPWR sky130_fd_sc_hd__fill_1
XFILLER_16_142 VGND VGND VPWR VPWR sky130_fd_sc_hd__fill_1
XFILLER_16_120 VGND VGND VPWR VPWR sky130_fd_sc_hd__fill_1
Xclkbuf_1_1__f__037_ clkbuf_0__037_/X VGND VGND VPWR VPWR _212_/A0 sky130_fd_sc_hd__clkbuf_16
XTAP_189 VGND VPWR sky130_fd_sc_hd__tapvpwrvgnd_1
XTAP_178 VGND VPWR sky130_fd_sc_hd__tapvpwrvgnd_1
XTAP_167 VGND VPWR sky130_fd_sc_hd__tapvpwrvgnd_1
XTAP_156 VGND VPWR sky130_fd_sc_hd__tapvpwrvgnd_1
XTAP_145 VGND VPWR sky130_fd_sc_hd__tapvpwrvgnd_1
XANTENNA__283__A1 _388_/A VGND VGND VPWR VPWR sky130_fd_sc_hd__diode_2
XTAP_134 VGND VPWR sky130_fd_sc_hd__tapvpwrvgnd_1
XTAP_123 VGND VPWR sky130_fd_sc_hd__tapvpwrvgnd_1
XTAP_101 VGND VPWR sky130_fd_sc_hd__tapvpwrvgnd_1
XTAP_112 VGND VPWR sky130_fd_sc_hd__tapvpwrvgnd_1
XFILLER_3_24 VGND VGND VPWR VPWR sky130_fd_sc_hd__fill_2
X_431_ _208_/A1 _431_/D fanout27/X VGND VGND VPWR VPWR _431_/Q sky130_fd_sc_hd__dfrtn_1
X_293_ _426_/D _425_/D _377_/A _287_/Y _292_/Y VGND VGND VPWR VPWR _293_/X sky130_fd_sc_hd__o2111a_1
X_362_ _428_/Q _301_/B _358_/Y _361_/Y VGND VGND VPWR VPWR _428_/D sky130_fd_sc_hd__o22a_1
XFILLER_10_148 VGND VGND VPWR VPWR sky130_fd_sc_hd__fill_1
XANTENNA__468__RESET_B fanout29/X VGND VGND VPWR VPWR sky130_fd_sc_hd__diode_2
X_276_ _335_/A _472_/Q _408_/A VGND VGND VPWR VPWR _388_/A sky130_fd_sc_hd__o21a_4
X_345_ _462_/Q _461_/Q _463_/Q VGND VGND VPWR VPWR _347_/A sky130_fd_sc_hd__or3_1
XANTENNA__238__A1 _335_/A VGND VGND VPWR VPWR sky130_fd_sc_hd__diode_2
XFILLER_0_14 VGND VGND VPWR VPWR sky130_ef_sc_hd__decap_12
XFILLER_2_133 VGND VGND VPWR VPWR sky130_fd_sc_hd__fill_1
X_328_ _436_/Q _437_/Q VGND VGND VPWR VPWR _328_/Y sky130_fd_sc_hd__xnor2_1
X_259_ _460_/Q VGND VGND VPWR VPWR _259_/Y sky130_fd_sc_hd__clkinv_4
XANTENNA__408__A _408_/A VGND VGND VPWR VPWR sky130_fd_sc_hd__diode_2
XTAP_179 VGND VPWR sky130_fd_sc_hd__tapvpwrvgnd_1
XTAP_168 VGND VPWR sky130_fd_sc_hd__tapvpwrvgnd_1
XTAP_157 VGND VPWR sky130_fd_sc_hd__tapvpwrvgnd_1
XTAP_146 VGND VPWR sky130_fd_sc_hd__tapvpwrvgnd_1
XTAP_135 VGND VPWR sky130_fd_sc_hd__tapvpwrvgnd_1
XTAP_124 VGND VPWR sky130_fd_sc_hd__tapvpwrvgnd_1
XTAP_102 VGND VPWR sky130_fd_sc_hd__tapvpwrvgnd_1
XTAP_113 VGND VPWR sky130_fd_sc_hd__tapvpwrvgnd_1
X_292_ _430_/Q _431_/Q _429_/Q VGND VGND VPWR VPWR _292_/Y sky130_fd_sc_hd__nor3b_2
X_430_ _430_/CLK _430_/D _380_/S VGND VGND VPWR VPWR _430_/Q sky130_fd_sc_hd__dfstp_1
X_361_ _359_/Y _360_/X _301_/B VGND VGND VPWR VPWR _361_/Y sky130_fd_sc_hd__o21ai_1
X_275_ _335_/A _450_/D VGND VGND VPWR VPWR _275_/Y sky130_fd_sc_hd__nor2_1
X_344_ _462_/Q _461_/Q VGND VGND VPWR VPWR _344_/Y sky130_fd_sc_hd__xnor2_1
XFILLER_5_175 VGND VGND VPWR VPWR sky130_fd_sc_hd__fill_1
XFILLER_3_3 VGND VGND VPWR VPWR sky130_ef_sc_hd__decap_12
XANTENNA__401__A2 _388_/A VGND VGND VPWR VPWR sky130_fd_sc_hd__diode_2
X_258_ _465_/Q VGND VGND VPWR VPWR _258_/Y sky130_fd_sc_hd__clkinv_2
XFILLER_9_79 VGND VGND VPWR VPWR sky130_fd_sc_hd__fill_1
X_327_ _327_/A _327_/B VGND VGND VPWR VPWR _327_/Y sky130_fd_sc_hd__nand2_1
XFILLER_18_88 VGND VGND VPWR VPWR sky130_fd_sc_hd__fill_1
XFILLER_6_14 VGND VGND VPWR VPWR sky130_fd_sc_hd__decap_4
XANTENNA__277__B1 _408_/A VGND VGND VPWR VPWR sky130_fd_sc_hd__diode_2
Xoutput11 _349_/Y VGND VGND VPWR VPWR resetb_sync sky130_fd_sc_hd__buf_12
XANTENNA__422__SET_B fanout28/X VGND VGND VPWR VPWR sky130_fd_sc_hd__diode_2
XTAP_169 VGND VPWR sky130_fd_sc_hd__tapvpwrvgnd_1
XTAP_158 VGND VPWR sky130_fd_sc_hd__tapvpwrvgnd_1
XTAP_147 VGND VPWR sky130_fd_sc_hd__tapvpwrvgnd_1
XTAP_136 VGND VPWR sky130_fd_sc_hd__tapvpwrvgnd_1
XTAP_125 VGND VPWR sky130_fd_sc_hd__tapvpwrvgnd_1
XTAP_114 VGND VPWR sky130_fd_sc_hd__tapvpwrvgnd_1
XTAP_103 VGND VPWR sky130_fd_sc_hd__tapvpwrvgnd_1
XFILLER_13_125 VGND VGND VPWR VPWR sky130_fd_sc_hd__fill_1
XFILLER_13_103 VGND VGND VPWR VPWR sky130_fd_sc_hd__fill_1
X_291_ _365_/B VGND VGND VPWR VPWR _291_/Y sky130_fd_sc_hd__inv_2
X_360_ _426_/D _426_/Q VGND VGND VPWR VPWR _360_/X sky130_fd_sc_hd__and2_1
XFILLER_3_15 VGND VGND VPWR VPWR sky130_fd_sc_hd__decap_4
X_343_ _343_/A _343_/B VGND VGND VPWR VPWR _343_/Y sky130_fd_sc_hd__nand2_1
X_274_ _459_/Q _460_/Q VGND VGND VPWR VPWR _274_/Y sky130_fd_sc_hd__nor2_1
XFILLER_0_27 VGND VGND VPWR VPWR sky130_ef_sc_hd__decap_12
X_326_ _430_/Q _429_/Q _431_/Q VGND VGND VPWR VPWR _327_/B sky130_fd_sc_hd__o21ai_1
X_257_ _436_/Q VGND VGND VPWR VPWR _303_/C sky130_fd_sc_hd__clkinv_4
XFILLER_9_47 VGND VGND VPWR VPWR sky130_fd_sc_hd__fill_1
X_309_ _424_/D _309_/B VGND VGND VPWR VPWR _309_/X sky130_fd_sc_hd__and2b_2
XANTENNA__421__RESET_B fanout28/X VGND VGND VPWR VPWR sky130_fd_sc_hd__diode_2
Xclkbuf_0_divider.out _312_/X VGND VGND VPWR VPWR clkbuf_0_divider.out/X sky130_fd_sc_hd__clkbuf_16
XANTENNA__277__A1 _335_/A VGND VGND VPWR VPWR sky130_fd_sc_hd__diode_2
XTAP_159 VGND VPWR sky130_fd_sc_hd__tapvpwrvgnd_1
XTAP_148 VGND VPWR sky130_fd_sc_hd__tapvpwrvgnd_1
XTAP_137 VGND VPWR sky130_fd_sc_hd__tapvpwrvgnd_1
XFILLER_11_3 VGND VGND VPWR VPWR sky130_fd_sc_hd__fill_1
XTAP_126 VGND VPWR sky130_fd_sc_hd__tapvpwrvgnd_1
XTAP_115 VGND VPWR sky130_fd_sc_hd__tapvpwrvgnd_1
XTAP_104 VGND VPWR sky130_fd_sc_hd__tapvpwrvgnd_1
XANTENNA_input8_A sel[1] VGND VGND VPWR VPWR sky130_fd_sc_hd__diode_2
XFILLER_3_27 VGND VGND VPWR VPWR sky130_fd_sc_hd__fill_2
X_290_ _426_/D _425_/D _377_/A _255_/Y _250_/Y VGND VGND VPWR VPWR _365_/B sky130_fd_sc_hd__o2111ai_4
Xclkbuf_0_pll_clk pll_clk VGND VGND VPWR VPWR clkbuf_0_pll_clk/X sky130_fd_sc_hd__clkbuf_16
X_342_ _455_/Q _454_/Q _456_/Q VGND VGND VPWR VPWR _343_/B sky130_fd_sc_hd__o21ai_1
X_273_ _459_/Q _231_/X _396_/S VGND VGND VPWR VPWR _459_/D sky130_fd_sc_hd__mux2_1
XFILLER_4_92 VGND VGND VPWR VPWR sky130_fd_sc_hd__fill_1
X_325_ _430_/Q _429_/Q _431_/Q VGND VGND VPWR VPWR _327_/A sky130_fd_sc_hd__or3_1
X_256_ _429_/Q VGND VGND VPWR VPWR _256_/Y sky130_fd_sc_hd__clkinv_2
X_239_ _308_/C _449_/D _308_/Y VGND VGND VPWR VPWR _239_/X sky130_fd_sc_hd__mux2_1
X_308_ _462_/Q _463_/Q _308_/C VGND VGND VPWR VPWR _308_/Y sky130_fd_sc_hd__nor3_2
XANTENNA__461__RESET_B fanout28/X VGND VGND VPWR VPWR sky130_fd_sc_hd__diode_2
XANTENNA__277__A2 _450_/D VGND VGND VPWR VPWR sky130_fd_sc_hd__diode_2
XTAP_149 VGND VPWR sky130_fd_sc_hd__tapvpwrvgnd_1
XTAP_138 VGND VPWR sky130_fd_sc_hd__tapvpwrvgnd_1
XTAP_127 VGND VPWR sky130_fd_sc_hd__tapvpwrvgnd_1
XTAP_116 VGND VPWR sky130_fd_sc_hd__tapvpwrvgnd_1
XTAP_105 VGND VPWR sky130_fd_sc_hd__tapvpwrvgnd_1
Xclkbuf_1_0__f_pll_clk90 clkbuf_0_pll_clk90/X VGND VGND VPWR VPWR _463_/CLK sky130_fd_sc_hd__clkbuf_16
X_272_ _272_/A VGND VGND VPWR VPWR _272_/Y sky130_fd_sc_hd__inv_2
X_341_ _455_/Q _454_/Q _456_/Q VGND VGND VPWR VPWR _343_/A sky130_fd_sc_hd__or3_1
X_410_ _410_/A _410_/B VGND VGND VPWR VPWR _467_/D sky130_fd_sc_hd__or2_1
XANTENNA__398__A1 _242_/S VGND VGND VPWR VPWR sky130_fd_sc_hd__diode_2
X_324_ _430_/Q _429_/Q VGND VGND VPWR VPWR _324_/Y sky130_fd_sc_hd__xnor2_1
X_255_ _435_/Q VGND VGND VPWR VPWR _255_/Y sky130_fd_sc_hd__clkinv_4
X_266__7 _411__8/A VGND VGND VPWR VPWR _417_/CLK sky130_fd_sc_hd__inv_4
XFILLER_1_3 VGND VGND VPWR VPWR sky130_ef_sc_hd__decap_12
X_238_ _237_/X _335_/A _306_/A VGND VGND VPWR VPWR _272_/A sky130_fd_sc_hd__mux2_1
X_307_ _462_/Q _463_/Q VGND VGND VPWR VPWR _307_/Y sky130_fd_sc_hd__nor2_1
XFILLER_1_83 VGND VGND VPWR VPWR sky130_fd_sc_hd__fill_1
XFILLER_1_50 VGND VGND VPWR VPWR sky130_fd_sc_hd__fill_2
XFILLER_10_70 VGND VGND VPWR VPWR sky130_fd_sc_hd__fill_1
XTAP_139 VGND VPWR sky130_fd_sc_hd__tapvpwrvgnd_1
XTAP_128 VGND VPWR sky130_fd_sc_hd__tapvpwrvgnd_1
XTAP_117 VGND VPWR sky130_fd_sc_hd__tapvpwrvgnd_1
XPHY_0 VGND VGND VPWR VPWR sky130_fd_sc_hd__decap_3
XTAP_106 VGND VPWR sky130_fd_sc_hd__tapvpwrvgnd_1
X_340_ _455_/Q _454_/Q VGND VGND VPWR VPWR _340_/Y sky130_fd_sc_hd__xnor2_1
X_469_ _212_/A1 _469_/D fanout28/X VGND VGND VPWR VPWR _472_/D sky130_fd_sc_hd__dfstp_1
X_323_ _254_/Y _287_/Y _322_/X VGND VGND VPWR VPWR _323_/X sky130_fd_sc_hd__a21o_1
X_254_ _433_/Q VGND VGND VPWR VPWR _254_/Y sky130_fd_sc_hd__inv_2
X_237_ _343_/Y _335_/A _279_/Y VGND VGND VPWR VPWR _237_/X sky130_fd_sc_hd__mux2_1
X_306_ _306_/A _388_/A VGND VGND VPWR VPWR _306_/X sky130_fd_sc_hd__or2_1
XANTENNA__313__A_N _408_/A VGND VGND VPWR VPWR sky130_fd_sc_hd__diode_2
XFILLER_1_95 VGND VGND VPWR VPWR sky130_fd_sc_hd__decap_4
XANTENNA__470__RESET_B fanout29/X VGND VGND VPWR VPWR sky130_fd_sc_hd__diode_2
XFILLER_6_18 VGND VGND VPWR VPWR sky130_fd_sc_hd__fill_1
XTAP_129 VGND VPWR sky130_fd_sc_hd__tapvpwrvgnd_1
XTAP_118 VGND VPWR sky130_fd_sc_hd__tapvpwrvgnd_1
XPHY_1 VGND VGND VPWR VPWR sky130_fd_sc_hd__decap_3
XTAP_107 VGND VPWR sky130_fd_sc_hd__tapvpwrvgnd_1
XANTENNA_input6_A sel2[2] VGND VGND VPWR VPWR sky130_fd_sc_hd__diode_2
X_270_ _270_/A VGND VGND VPWR VPWR _270_/Y sky130_fd_sc_hd__inv_2
X_468_ _473_/CLK _468_/D fanout29/X VGND VGND VPWR VPWR _471_/D sky130_fd_sc_hd__dfrtp_1
XANTENNA__398__A3 _388_/A VGND VGND VPWR VPWR sky130_fd_sc_hd__diode_2
X_399_ _242_/S _388_/A _242_/X VGND VGND VPWR VPWR _399_/Y sky130_fd_sc_hd__o21bai_1
XANTENNA__457__SET_B fanout28/X VGND VGND VPWR VPWR sky130_fd_sc_hd__diode_2
X_322_ _434_/Q _433_/Q _435_/Q VGND VGND VPWR VPWR _322_/X sky130_fd_sc_hd__o21a_1
XFILLER_9_29 VGND VGND VPWR VPWR sky130_fd_sc_hd__fill_2
Xclkbuf_1_0__f_net10 clkbuf_0_net10/X VGND VGND VPWR VPWR core_clk sky130_fd_sc_hd__clkbuf_16
X_253_ _439_/Q VGND VGND VPWR VPWR _253_/Y sky130_fd_sc_hd__clkinv_2
X_305_ _465_/Q _382_/C VGND VGND VPWR VPWR _305_/Y sky130_fd_sc_hd__nand2_1
X_236_ _235_/X _450_/D _242_/S VGND VGND VPWR VPWR _249_/A sky130_fd_sc_hd__mux2_1
XANTENNA_fanout27_A fanout29/X VGND VGND VPWR VPWR sky130_fd_sc_hd__diode_2
X_219_ _218_/X _425_/D _301_/A VGND VGND VPWR VPWR _252_/A sky130_fd_sc_hd__mux2_1
XANTENNA_clkbuf_0_pll_clk_A pll_clk VGND VGND VPWR VPWR sky130_fd_sc_hd__diode_2
XTAP_119 VGND VPWR sky130_fd_sc_hd__tapvpwrvgnd_1
XPHY_2 VGND VGND VPWR VPWR sky130_fd_sc_hd__decap_3
XTAP_108 VGND VPWR sky130_fd_sc_hd__tapvpwrvgnd_1
XFILLER_12_196 VGND VGND VPWR VPWR sky130_fd_sc_hd__fill_1
XANTENNA__240__S _242_/S VGND VGND VPWR VPWR sky130_fd_sc_hd__diode_2
XANTENNA__417__SET_B fanout28/X VGND VGND VPWR VPWR sky130_fd_sc_hd__diode_2
X_467_ _211_/A1 _467_/D fanout29/X VGND VGND VPWR VPWR _467_/Q sky130_fd_sc_hd__dfrtp_1
X_398_ _242_/S _308_/C _388_/A _397_/Y VGND VGND VPWR VPWR _461_/D sky130_fd_sc_hd__o31ai_1
X_252_ _252_/A VGND VGND VPWR VPWR _252_/Y sky130_fd_sc_hd__inv_2
X_321_ _321_/A _321_/B VGND VGND VPWR VPWR _321_/Y sky130_fd_sc_hd__nor2_1
X_235_ _340_/Y _450_/D _279_/Y VGND VGND VPWR VPWR _235_/X sky130_fd_sc_hd__mux2_1
X_304_ _466_/Q _467_/Q VGND VGND VPWR VPWR _382_/C sky130_fd_sc_hd__nor2_1
X_218_ _324_/Y _425_/D _292_/Y VGND VGND VPWR VPWR _218_/X sky130_fd_sc_hd__mux2_1
XTAP_109 VGND VPWR sky130_fd_sc_hd__tapvpwrvgnd_1
XPHY_3 VGND VGND VPWR VPWR sky130_fd_sc_hd__decap_3
Xuser_clk_out_buffer _212_/X VGND VGND VPWR VPWR user_clk sky130_fd_sc_hd__clkbuf_16
XFILLER_8_168 VGND VGND VPWR VPWR sky130_fd_sc_hd__fill_1
X_397_ _242_/S _388_/A _240_/X VGND VGND VPWR VPWR _397_/Y sky130_fd_sc_hd__o21ai_1
X_466_ _211_/A1 _466_/D fanout28/X VGND VGND VPWR VPWR _466_/Q sky130_fd_sc_hd__dfrtp_1
XANTENNA__316__A2 _388_/A VGND VGND VPWR VPWR sky130_fd_sc_hd__diode_2
XFILLER_1_185 VGND VGND VPWR VPWR sky130_fd_sc_hd__fill_1
X_251_ _432_/Q VGND VGND VPWR VPWR _251_/Y sky130_fd_sc_hd__clkinv_4
X_320_ _425_/D _377_/A _426_/D VGND VGND VPWR VPWR _321_/B sky130_fd_sc_hd__o21a_1
XANTENNA__243__A1 _335_/A VGND VGND VPWR VPWR sky130_fd_sc_hd__diode_2
XANTENNA__234__A1 _408_/A VGND VGND VPWR VPWR sky130_fd_sc_hd__diode_2
X_449_ _211_/A1 _449_/D VGND VGND VPWR VPWR _449_/Q sky130_fd_sc_hd__dfxtp_1
Xclkbuf_1_1__f_divider.out clkbuf_0_divider.out/X VGND VGND VPWR VPWR _210_/A1 sky130_fd_sc_hd__clkbuf_16
X_234_ _233_/X _408_/A _242_/S VGND VGND VPWR VPWR _270_/A sky130_fd_sc_hd__mux2_1
X_303_ _437_/Q _438_/Q _303_/C VGND VGND VPWR VPWR _303_/Y sky130_fd_sc_hd__nor3_2
X_217_ _216_/X _377_/A _301_/A VGND VGND VPWR VPWR _267_/A sky130_fd_sc_hd__mux2_1
XPHY_4 VGND VGND VPWR VPWR sky130_fd_sc_hd__decap_3
X_465_ _211_/A1 _465_/D fanout28/X VGND VGND VPWR VPWR _465_/Q sky130_fd_sc_hd__dfstp_2
X_396_ _460_/Q _232_/X _396_/S VGND VGND VPWR VPWR _460_/D sky130_fd_sc_hd__mux2_1
XANTENNA__473__RESET_B fanout29/X VGND VGND VPWR VPWR sky130_fd_sc_hd__diode_2
X_250_ _434_/Q VGND VGND VPWR VPWR _250_/Y sky130_fd_sc_hd__clkinv_4
XANTENNA_input4_A sel2[0] VGND VGND VPWR VPWR sky130_fd_sc_hd__diode_2
Xfanout20 _445_/Q VGND VGND VPWR VPWR _424_/D sky130_fd_sc_hd__clkbuf_2
X_448_ _448_/CLK _448_/D VGND VGND VPWR VPWR _448_/Q sky130_fd_sc_hd__dfxtp_1
X_379_ _379_/A _379_/B VGND VGND VPWR VPWR _441_/D sky130_fd_sc_hd__or2_1
X_233_ _261_/Y _408_/A _279_/Y VGND VGND VPWR VPWR _233_/X sky130_fd_sc_hd__mux2_1
XFILLER_1_99 VGND VGND VPWR VPWR sky130_fd_sc_hd__fill_1
XFILLER_1_77 VGND VGND VPWR VPWR sky130_fd_sc_hd__fill_1
X_302_ _437_/Q _438_/Q VGND VGND VPWR VPWR _302_/Y sky130_fd_sc_hd__nor2_1
X_216_ _256_/Y _424_/D _292_/Y VGND VGND VPWR VPWR _216_/X sky130_fd_sc_hd__mux2_1
XPHY_5 VGND VGND VPWR VPWR sky130_fd_sc_hd__decap_3
XANTENNA__469__SET_B fanout28/X VGND VGND VPWR VPWR sky130_fd_sc_hd__diode_2
XFILLER_7_181 VGND VGND VPWR VPWR sky130_fd_sc_hd__fill_1
XANTENNA__246__A0 _335_/A VGND VGND VPWR VPWR sky130_fd_sc_hd__diode_2
X_464_ _208_/A1 _464_/D fanout27/X VGND VGND VPWR VPWR _464_/Q sky130_fd_sc_hd__dfstp_1
X_395_ _458_/Q _230_/X _396_/S VGND VGND VPWR VPWR _458_/D sky130_fd_sc_hd__mux2_1
XANTENNA__452__SET_B fanout28/X VGND VGND VPWR VPWR sky130_fd_sc_hd__diode_2
XFILLER_4_11 VGND VGND VPWR VPWR sky130_fd_sc_hd__fill_2
Xfanout21 _242_/S VGND VGND VPWR VPWR _306_/A sky130_fd_sc_hd__clkbuf_4
X_378_ _377_/A _440_/Q _439_/Q _441_/Q VGND VGND VPWR VPWR _379_/B sky130_fd_sc_hd__o31a_1
X_447_ _447_/CLK _447_/D fanout27/X VGND VGND VPWR VPWR _447_/Q sky130_fd_sc_hd__dfrtp_1
X_232_ _339_/X _337_/B _306_/A VGND VGND VPWR VPWR _232_/X sky130_fd_sc_hd__mux2_1
XFILLER_1_23 VGND VGND VPWR VPWR sky130_fd_sc_hd__decap_3
X_301_ _301_/A _301_/B VGND VGND VPWR VPWR _301_/X sky130_fd_sc_hd__or2_1
Xclkbuf_1_0__f__037_ clkbuf_0__037_/X VGND VGND VPWR VPWR _210_/A0 sky130_fd_sc_hd__clkbuf_16
XFILLER_1_56 VGND VGND VPWR VPWR sky130_fd_sc_hd__decap_4
X_215_ _323_/X _321_/B _301_/A VGND VGND VPWR VPWR _215_/X sky130_fd_sc_hd__mux2_1
XPHY_6 VGND VGND VPWR VPWR sky130_fd_sc_hd__decap_3
XANTENNA__467__RESET_B fanout29/X VGND VGND VPWR VPWR sky130_fd_sc_hd__diode_2
X_394_ _272_/Y _283_/Y _393_/Y VGND VGND VPWR VPWR _456_/D sky130_fd_sc_hd__o21ai_1
X_463_ _463_/CLK _463_/D fanout28/X VGND VGND VPWR VPWR _463_/Q sky130_fd_sc_hd__dfrtp_1
XANTENNA__237__A1 _335_/A VGND VGND VPWR VPWR sky130_fd_sc_hd__diode_2
XFILLER_4_196 VGND VGND VPWR VPWR sky130_fd_sc_hd__fill_1
Xfanout22 _453_/Q VGND VGND VPWR VPWR _242_/S sky130_fd_sc_hd__clkbuf_4
XANTENNA__400__A1 _242_/S VGND VGND VPWR VPWR sky130_fd_sc_hd__diode_2
Xclkbuf_1_1__f_pll_clk90 clkbuf_0_pll_clk90/X VGND VGND VPWR VPWR _211_/A1 sky130_fd_sc_hd__clkbuf_16
X_377_ _377_/A _440_/Q _439_/Q _441_/Q VGND VGND VPWR VPWR _379_/A sky130_fd_sc_hd__nor4_1
X_446_ _447_/CLK _446_/D fanout27/X VGND VGND VPWR VPWR _446_/Q sky130_fd_sc_hd__dfstp_1
XFILLER_8_3 VGND VGND VPWR VPWR sky130_fd_sc_hd__decap_8
Xclkbuf_0_ext_clk ext_clk VGND VGND VPWR VPWR clkbuf_0_ext_clk/X sky130_fd_sc_hd__clkbuf_16
X_231_ _334_/Y _337_/Y _306_/A VGND VGND VPWR VPWR _231_/X sky130_fd_sc_hd__mux2_1
X_300_ _439_/Q _354_/C VGND VGND VPWR VPWR _300_/Y sky130_fd_sc_hd__nand2_1
X_429_ _448_/CLK _429_/D _380_/S VGND VGND VPWR VPWR _429_/Q sky130_fd_sc_hd__dfrtn_1
XFILLER_10_55 VGND VGND VPWR VPWR sky130_fd_sc_hd__fill_1
Xinput1 ext_clk_sel VGND VGND VPWR VPWR _263_/A sky130_fd_sc_hd__clkbuf_1
XTAP_90 VGND VPWR sky130_fd_sc_hd__tapvpwrvgnd_1
X_214_ _318_/Y _321_/Y _301_/A VGND VGND VPWR VPWR _214_/X sky130_fd_sc_hd__mux2_1
XPHY_7 VGND VGND VPWR VPWR sky130_fd_sc_hd__decap_3
X_414__6 _448_/CLK VGND VGND VPWR VPWR _434_/CLK sky130_fd_sc_hd__inv_4
XFILLER_7_23 VGND VGND VPWR VPWR sky130_fd_sc_hd__decap_3
XFILLER_7_183 VGND VGND VPWR VPWR sky130_fd_sc_hd__fill_1
X_462_ _463_/CLK _462_/D fanout26/X VGND VGND VPWR VPWR _462_/Q sky130_fd_sc_hd__dfstp_1
XFILLER_4_120 VGND VGND VPWR VPWR sky130_fd_sc_hd__fill_1
XFILLER_4_142 VGND VGND VPWR VPWR sky130_fd_sc_hd__fill_1
X_393_ _306_/A _393_/B _456_/Q VGND VGND VPWR VPWR _393_/Y sky130_fd_sc_hd__nand3b_1
Xfanout23 _227_/S VGND VGND VPWR VPWR _301_/A sky130_fd_sc_hd__clkbuf_4
X_376_ _229_/X _440_/Q _377_/A VGND VGND VPWR VPWR _440_/D sky130_fd_sc_hd__mux2_1
X_445_ _447_/CLK _445_/D fanout27/X VGND VGND VPWR VPWR _445_/Q sky130_fd_sc_hd__dfrtp_1
XANTENNA_input2_A ext_reset VGND VGND VPWR VPWR sky130_fd_sc_hd__diode_2
X_230_ _260_/Y _333_/Y _306_/A VGND VGND VPWR VPWR _230_/X sky130_fd_sc_hd__mux2_1
XFILLER_1_69 VGND VGND VPWR VPWR sky130_fd_sc_hd__decap_8
X_359_ _447_/Q _426_/Q VGND VGND VPWR VPWR _359_/Y sky130_fd_sc_hd__nor2_1
X_428_ _208_/A1 _428_/D fanout27/X VGND VGND VPWR VPWR _428_/Q sky130_fd_sc_hd__dfrtp_1
Xinput2 ext_reset VGND VGND VPWR VPWR _349_/A sky130_fd_sc_hd__clkbuf_1
XTAP_80 VGND VPWR sky130_fd_sc_hd__tapvpwrvgnd_1
XTAP_91 VGND VPWR sky130_fd_sc_hd__tapvpwrvgnd_1
X_213_ _254_/Y _317_/Y _301_/A VGND VGND VPWR VPWR _213_/X sky130_fd_sc_hd__mux2_1
XFILLER_2_90 VGND VGND VPWR VPWR sky130_fd_sc_hd__fill_1
XANTENNA__276__B1 _408_/A VGND VGND VPWR VPWR sky130_fd_sc_hd__diode_2
XFILLER_15_199 VGND VGND VPWR VPWR sky130_fd_sc_hd__fill_1
XPHY_8 VGND VGND VPWR VPWR sky130_fd_sc_hd__decap_3
XFILLER_16_44 VGND VGND VPWR VPWR sky130_fd_sc_hd__fill_1
Xclkbuf_0_net10 _210_/X VGND VGND VPWR VPWR clkbuf_0_net10/X sky130_fd_sc_hd__clkbuf_16
X_392_ _270_/Y _283_/Y _391_/Y VGND VGND VPWR VPWR _454_/D sky130_fd_sc_hd__o21ai_1
X_461_ _211_/A1 _461_/D fanout28/X VGND VGND VPWR VPWR _461_/Q sky130_fd_sc_hd__dfrtp_4
XFILLER_4_14 VGND VGND VPWR VPWR sky130_fd_sc_hd__decap_4
X_411__8 _411__8/A VGND VGND VPWR VPWR _418_/CLK sky130_fd_sc_hd__inv_4
XFILLER_1_157 VGND VGND VPWR VPWR sky130_fd_sc_hd__fill_1
XFILLER_1_135 VGND VGND VPWR VPWR sky130_fd_sc_hd__fill_1
XFILLER_1_124 VGND VGND VPWR VPWR sky130_fd_sc_hd__fill_2
Xfanout24 _428_/Q VGND VGND VPWR VPWR _227_/S sky130_fd_sc_hd__clkbuf_4
Xfanout13 _473_/Q VGND VGND VPWR VPWR _335_/A sky130_fd_sc_hd__clkbuf_4
XANTENNA__400__A3 _388_/A VGND VGND VPWR VPWR sky130_fd_sc_hd__diode_2
X_375_ _228_/X _439_/Q _377_/A VGND VGND VPWR VPWR _439_/D sky130_fd_sc_hd__mux2_1
X_444_ _210_/A1 _444_/D fanout27/X VGND VGND VPWR VPWR _447_/D sky130_fd_sc_hd__dfrtp_1
XFILLER_1_15 VGND VGND VPWR VPWR sky130_fd_sc_hd__decap_8
X_427_ _208_/A1 _427_/D fanout27/X VGND VGND VPWR VPWR _427_/Q sky130_fd_sc_hd__dfstp_1
X_358_ _358_/A _358_/B _424_/Q VGND VGND VPWR VPWR _358_/Y sky130_fd_sc_hd__nand3_1
Xinput3 resetb VGND VGND VPWR VPWR input3/X sky130_fd_sc_hd__clkbuf_1
XTAP_70 VGND VPWR sky130_fd_sc_hd__tapvpwrvgnd_1
XTAP_81 VGND VPWR sky130_fd_sc_hd__tapvpwrvgnd_1
X_289_ _426_/D _446_/Q _424_/D VGND VGND VPWR VPWR _301_/B sky130_fd_sc_hd__o21a_4
XTAP_92 VGND VPWR sky130_fd_sc_hd__tapvpwrvgnd_1
X_212_ _212_/A0 _212_/A1 _421_/Q VGND VGND VPWR VPWR _212_/X sky130_fd_sc_hd__mux2_1
XFILLER_10_35 VGND VGND VPWR VPWR sky130_fd_sc_hd__fill_1
XANTENNA__276__A1 _335_/A VGND VGND VPWR VPWR sky130_fd_sc_hd__diode_2
XPHY_9 VGND VGND VPWR VPWR sky130_fd_sc_hd__decap_3
XANTENNA__335__A _335_/A VGND VGND VPWR VPWR sky130_fd_sc_hd__diode_2
X_391_ _306_/A _393_/B _454_/Q VGND VGND VPWR VPWR _391_/Y sky130_fd_sc_hd__nand3b_1
X_460_ _463_/CLK _460_/D fanout26/X VGND VGND VPWR VPWR _460_/Q sky130_fd_sc_hd__dfrtn_1
Xfanout25 input3/X VGND VGND VPWR VPWR _380_/S sky130_fd_sc_hd__buf_4
XFILLER_13_79 VGND VGND VPWR VPWR sky130_fd_sc_hd__fill_1
Xfanout14 _472_/Q VGND VGND VPWR VPWR _450_/D sky130_fd_sc_hd__clkbuf_4
X_443_ _447_/CLK _443_/D fanout27/X VGND VGND VPWR VPWR _446_/D sky130_fd_sc_hd__dfstp_1
X_374_ _227_/S _438_/Q _301_/B _373_/Y VGND VGND VPWR VPWR _438_/D sky130_fd_sc_hd__o31a_1
XFILLER_1_27 VGND VGND VPWR VPWR sky130_fd_sc_hd__fill_2
XFILLER_6_3 VGND VGND VPWR VPWR sky130_fd_sc_hd__decap_8
Xinput4 sel2[0] VGND VGND VPWR VPWR _468_/D sky130_fd_sc_hd__clkbuf_1
X_357_ _425_/D _425_/Q VGND VGND VPWR VPWR _358_/B sky130_fd_sc_hd__nand2b_1
XTAP_60 VGND VPWR sky130_fd_sc_hd__tapvpwrvgnd_1
X_426_ _208_/A1 _426_/D VGND VGND VPWR VPWR _426_/Q sky130_fd_sc_hd__dfxtp_1
XTAP_71 VGND VPWR sky130_fd_sc_hd__tapvpwrvgnd_1
XTAP_82 VGND VPWR sky130_fd_sc_hd__tapvpwrvgnd_1
XTAP_93 VGND VPWR sky130_fd_sc_hd__tapvpwrvgnd_1
X_288_ _426_/D _446_/Q VGND VGND VPWR VPWR _288_/Y sky130_fd_sc_hd__nor2_1
X_211_ _452_/Q _211_/A1 _275_/Y VGND VGND VPWR VPWR _313_/B sky130_fd_sc_hd__mux2_1
X_409_ _408_/A _466_/Q _465_/Q _467_/Q VGND VGND VPWR VPWR _410_/B sky130_fd_sc_hd__o31a_1
XFILLER_2_92 VGND VGND VPWR VPWR sky130_fd_sc_hd__fill_1
XFILLER_7_15 VGND VGND VPWR VPWR sky130_fd_sc_hd__decap_8