* NGSPICE file created from caravel_clocking.ext - technology: sky130A

* Black-box entry subcircuit for sky130_fd_sc_hd__tapvpwrvgnd_1 abstract view
.subckt sky130_fd_sc_hd__tapvpwrvgnd_1 VGND VPWR
.ends

* Black-box entry subcircuit for sky130_fd_sc_hd__mux2_1 abstract view
.subckt sky130_fd_sc_hd__mux2_1 A0 A1 S VGND VNB VPB VPWR X
.ends

* Black-box entry subcircuit for sky130_fd_sc_hd__decap_8 abstract view
.subckt sky130_fd_sc_hd__decap_8 VGND VNB VPB VPWR
.ends

* Black-box entry subcircuit for sky130_fd_sc_hd__nor2_1 abstract view
.subckt sky130_fd_sc_hd__nor2_1 A B VGND VNB VPB VPWR Y
.ends

* Black-box entry subcircuit for sky130_fd_sc_hd__clkbuf_2 abstract view
.subckt sky130_fd_sc_hd__clkbuf_2 A VGND VNB VPB VPWR X
.ends

* Black-box entry subcircuit for sky130_fd_sc_hd__nand3_1 abstract view
.subckt sky130_fd_sc_hd__nand3_1 A B C VGND VNB VPB VPWR Y
.ends

* Black-box entry subcircuit for sky130_fd_sc_hd__fill_1 abstract view
.subckt sky130_fd_sc_hd__fill_1 VGND VNB VPB VPWR
.ends

* Black-box entry subcircuit for sky130_fd_sc_hd__a21o_1 abstract view
.subckt sky130_fd_sc_hd__a21o_1 A1 A2 B1 VGND VNB VPB VPWR X
.ends

* Black-box entry subcircuit for sky130_fd_sc_hd__nand2_1 abstract view
.subckt sky130_fd_sc_hd__nand2_1 A B VGND VNB VPB VPWR Y
.ends

* Black-box entry subcircuit for sky130_fd_sc_hd__buf_2 abstract view
.subckt sky130_fd_sc_hd__buf_2 A VGND VNB VPB VPWR X
.ends

* Black-box entry subcircuit for sky130_fd_sc_hd__decap_12 abstract view
.subckt sky130_fd_sc_hd__decap_12 VGND VNB VPB VPWR
.ends

* Black-box entry subcircuit for sky130_fd_sc_hd__decap_6 abstract view
.subckt sky130_fd_sc_hd__decap_6 VGND VNB VPB VPWR
.ends

* Black-box entry subcircuit for sky130_fd_sc_hd__decap_3 abstract view
.subckt sky130_fd_sc_hd__decap_3 VGND VNB VPB VPWR
.ends

* Black-box entry subcircuit for sky130_fd_sc_hd__a21bo_1 abstract view
.subckt sky130_fd_sc_hd__a21bo_1 A1 A2 B1_N VGND VNB VPB VPWR X
.ends

* Black-box entry subcircuit for sky130_fd_sc_hd__o21a_1 abstract view
.subckt sky130_fd_sc_hd__o21a_1 A1 A2 B1 VGND VNB VPB VPWR X
.ends

* Black-box entry subcircuit for sky130_fd_sc_hd__fill_2 abstract view
.subckt sky130_fd_sc_hd__fill_2 VGND VNB VPB VPWR
.ends

* Black-box entry subcircuit for sky130_fd_sc_hd__clkinv_4 abstract view
.subckt sky130_fd_sc_hd__clkinv_4 A VGND VNB VPB VPWR Y
.ends

* Black-box entry subcircuit for sky130_fd_sc_hd__decap_4 abstract view
.subckt sky130_fd_sc_hd__decap_4 VGND VNB VPB VPWR
.ends

* Black-box entry subcircuit for sky130_fd_sc_hd__diode_2 abstract view
.subckt sky130_fd_sc_hd__diode_2 DIODE VGND VNB VPB VPWR
.ends

* Black-box entry subcircuit for sky130_fd_sc_hd__clkbuf_1 abstract view
.subckt sky130_fd_sc_hd__clkbuf_1 A VGND VNB VPB VPWR X
.ends

* Black-box entry subcircuit for sky130_fd_sc_hd__nor3_1 abstract view
.subckt sky130_fd_sc_hd__nor3_1 A B C VGND VNB VPB VPWR Y
.ends

* Black-box entry subcircuit for sky130_fd_sc_hd__o21ai_1 abstract view
.subckt sky130_fd_sc_hd__o21ai_1 A1 A2 B1 VGND VNB VPB VPWR Y
.ends

* Black-box entry subcircuit for sky130_fd_sc_hd__nand2_2 abstract view
.subckt sky130_fd_sc_hd__nand2_2 A B VGND VNB VPB VPWR Y
.ends

* Black-box entry subcircuit for sky130_fd_sc_hd__xnor2_1 abstract view
.subckt sky130_fd_sc_hd__xnor2_1 A B VGND VNB VPB VPWR Y
.ends

* Black-box entry subcircuit for sky130_fd_sc_hd__dfrtp_1 abstract view
.subckt sky130_fd_sc_hd__dfrtp_1 CLK D RESET_B VGND VNB VPB VPWR Q
.ends

* Black-box entry subcircuit for sky130_fd_sc_hd__nor3b_2 abstract view
.subckt sky130_fd_sc_hd__nor3b_2 A B C_N VGND VNB VPB VPWR Y
.ends

* Black-box entry subcircuit for sky130_fd_sc_hd__and2_1 abstract view
.subckt sky130_fd_sc_hd__and2_1 A B VGND VNB VPB VPWR X
.ends

* Black-box entry subcircuit for sky130_fd_sc_hd__dfstp_1 abstract view
.subckt sky130_fd_sc_hd__dfstp_1 CLK D SET_B VGND VNB VPB VPWR Q
.ends

* Black-box entry subcircuit for sky130_fd_sc_hd__clkbuf_16 abstract view
.subckt sky130_fd_sc_hd__clkbuf_16 A VGND VNB VPB VPWR X
.ends

* Black-box entry subcircuit for sky130_fd_sc_hd__inv_2 abstract view
.subckt sky130_fd_sc_hd__inv_2 A VGND VNB VPB VPWR Y
.ends

* Black-box entry subcircuit for sky130_fd_sc_hd__dfrtp_2 abstract view
.subckt sky130_fd_sc_hd__dfrtp_2 CLK D RESET_B VGND VNB VPB VPWR Q
.ends

* Black-box entry subcircuit for sky130_fd_sc_hd__inv_4 abstract view
.subckt sky130_fd_sc_hd__inv_4 A VGND VNB VPB VPWR Y
.ends

* Black-box entry subcircuit for sky130_fd_sc_hd__o211a_1 abstract view
.subckt sky130_fd_sc_hd__o211a_1 A1 A2 B1 C1 VGND VNB VPB VPWR X
.ends

* Black-box entry subcircuit for sky130_fd_sc_hd__dfrtn_1 abstract view
.subckt sky130_fd_sc_hd__dfrtn_1 CLK_N D RESET_B VGND VNB VPB VPWR Q
.ends

* Black-box entry subcircuit for sky130_fd_sc_hd__or2b_1 abstract view
.subckt sky130_fd_sc_hd__or2b_1 A B_N VGND VNB VPB VPWR X
.ends

* Black-box entry subcircuit for sky130_fd_sc_hd__o21bai_1 abstract view
.subckt sky130_fd_sc_hd__o21bai_1 A1 A2 B1_N VGND VNB VPB VPWR Y
.ends

* Black-box entry subcircuit for sky130_fd_sc_hd__dfstp_2 abstract view
.subckt sky130_fd_sc_hd__dfstp_2 CLK D SET_B VGND VNB VPB VPWR Q
.ends

* Black-box entry subcircuit for sky130_fd_sc_hd__mux2_2 abstract view
.subckt sky130_fd_sc_hd__mux2_2 A0 A1 S VGND VNB VPB VPWR X
.ends

* Black-box entry subcircuit for sky130_fd_sc_hd__dfrtp_4 abstract view
.subckt sky130_fd_sc_hd__dfrtp_4 CLK D RESET_B VGND VNB VPB VPWR Q
.ends

* Black-box entry subcircuit for sky130_fd_sc_hd__nand3b_1 abstract view
.subckt sky130_fd_sc_hd__nand3b_1 A_N B C VGND VNB VPB VPWR Y
.ends

* Black-box entry subcircuit for sky130_fd_sc_hd__xor2_1 abstract view
.subckt sky130_fd_sc_hd__xor2_1 A B VGND VNB VPB VPWR X
.ends

* Black-box entry subcircuit for sky130_fd_sc_hd__dlymetal6s2s_1 abstract view
.subckt sky130_fd_sc_hd__dlymetal6s2s_1 A VGND VNB VPB VPWR X
.ends

* Black-box entry subcircuit for sky130_fd_sc_hd__dfstp_4 abstract view
.subckt sky130_fd_sc_hd__dfstp_4 CLK D SET_B VGND VNB VPB VPWR Q
.ends

* Black-box entry subcircuit for sky130_fd_sc_hd__dfxtp_1 abstract view
.subckt sky130_fd_sc_hd__dfxtp_1 CLK D VGND VNB VPB VPWR Q
.ends

* Black-box entry subcircuit for sky130_fd_sc_hd__clkinv_2 abstract view
.subckt sky130_fd_sc_hd__clkinv_2 A VGND VNB VPB VPWR Y
.ends

* Black-box entry subcircuit for sky130_fd_sc_hd__buf_12 abstract view
.subckt sky130_fd_sc_hd__buf_12 A VGND VNB VPB VPWR X
.ends

* Black-box entry subcircuit for sky130_fd_sc_hd__o2bb2ai_2 abstract view
.subckt sky130_fd_sc_hd__o2bb2ai_2 A1_N A2_N B1 B2 VGND VNB VPB VPWR Y
.ends

* Black-box entry subcircuit for sky130_fd_sc_hd__conb_1 abstract view
.subckt sky130_fd_sc_hd__conb_1 VGND VNB VPB VPWR HI LO
.ends

* Black-box entry subcircuit for sky130_fd_sc_hd__clkdlybuf4s25_1 abstract view
.subckt sky130_fd_sc_hd__clkdlybuf4s25_1 A VGND VNB VPB VPWR X
.ends

* Black-box entry subcircuit for sky130_fd_sc_hd__nor3b_1 abstract view
.subckt sky130_fd_sc_hd__nor3b_1 A B C_N VGND VNB VPB VPWR Y
.ends

* Black-box entry subcircuit for sky130_fd_sc_hd__o211ai_4 abstract view
.subckt sky130_fd_sc_hd__o211ai_4 A1 A2 B1 C1 VGND VNB VPB VPWR Y
.ends

* Black-box entry subcircuit for sky130_fd_sc_hd__dlygate4sd1_1 abstract view
.subckt sky130_fd_sc_hd__dlygate4sd1_1 A VGND VNB VPB VPWR X
.ends

* Black-box entry subcircuit for sky130_fd_sc_hd__clkbuf_4 abstract view
.subckt sky130_fd_sc_hd__clkbuf_4 A VGND VNB VPB VPWR X
.ends

* Black-box entry subcircuit for sky130_fd_sc_hd__buf_1 abstract view
.subckt sky130_fd_sc_hd__buf_1 A VGND VNB VPB VPWR X
.ends

.subckt caravel_clocking VGND VPWR core_clk ext_clk ext_clk_sel ext_reset pll_clk
+ pll_clk90 resetb resetb_sync sel2[0] sel2[1] sel2[2] sel[0] sel[1] sel[2] user_clk
XTAP_199 VGND VPWR sky130_fd_sc_hd__tapvpwrvgnd_1
XTAP_188 VGND VPWR sky130_fd_sc_hd__tapvpwrvgnd_1
XTAP_177 VGND VPWR sky130_fd_sc_hd__tapvpwrvgnd_1
X_432_ _386_/Y _460_/Q _432_/S VGND VGND VPWR VPWR _432_/X sky130_fd_sc_hd__mux2_1
XFILLER_3_12 VGND VGND VPWR VPWR sky130_fd_sc_hd__decap_8
X_363_ _363_/A _363_/B VGND VGND VPWR VPWR _363_/Y sky130_fd_sc_hd__nor2_1
Xrebuffer7 _455_/Q VGND VGND VPWR VPWR _361_/C sky130_fd_sc_hd__clkbuf_2
X_294_ _296_/A _476_/Q _329_/B VGND VGND VPWR VPWR _294_/Y sky130_fd_sc_hd__nand3_1
XFILLER_8_170 VGND VGND VPWR VPWR sky130_fd_sc_hd__fill_1
X_415_ _366_/Y _455_/Q _417_/S VGND VGND VPWR VPWR _415_/X sky130_fd_sc_hd__mux2_1
X_277_ _434_/S _278_/B _278_/C VGND VGND VPWR VPWR _279_/A sky130_fd_sc_hd__a21o_1
Xclkbuf_1_1_0_pll_clk clkbuf_0_pll_clk/X VGND VGND VPWR VPWR _435_/A1 sky130_fd_sc_hd__clkbuf_2
XFILLER_9_77 VGND VGND VPWR VPWR sky130_fd_sc_hd__fill_1
X_329_ _335_/A _329_/B VGND VGND VPWR VPWR _338_/A sky130_fd_sc_hd__nand2_1
Xsplit8 split8/A VGND VGND VPWR VPWR _440_/D sky130_fd_sc_hd__buf_2
XFILLER_13_3 VGND VGND VPWR VPWR sky130_fd_sc_hd__decap_12
XFILLER_6_56 VGND VGND VPWR VPWR sky130_fd_sc_hd__fill_1
XFILLER_6_78 VGND VGND VPWR VPWR sky130_fd_sc_hd__decap_6
XFILLER_16_142 VGND VGND VPWR VPWR sky130_fd_sc_hd__fill_1
XTAP_189 VGND VPWR sky130_fd_sc_hd__tapvpwrvgnd_1
XTAP_178 VGND VPWR sky130_fd_sc_hd__tapvpwrvgnd_1
XTAP_167 VGND VPWR sky130_fd_sc_hd__tapvpwrvgnd_1
XTAP_156 VGND VPWR sky130_fd_sc_hd__tapvpwrvgnd_1
XTAP_145 VGND VPWR sky130_fd_sc_hd__tapvpwrvgnd_1
XTAP_134 VGND VPWR sky130_fd_sc_hd__tapvpwrvgnd_1
XTAP_123 VGND VPWR sky130_fd_sc_hd__tapvpwrvgnd_1
XTAP_101 VGND VPWR sky130_fd_sc_hd__tapvpwrvgnd_1
XTAP_112 VGND VPWR sky130_fd_sc_hd__tapvpwrvgnd_1
X_431_ _430_/X _462_/Q _491_/Q VGND VGND VPWR VPWR _431_/X sky130_fd_sc_hd__mux2_1
XFILLER_13_101 VGND VGND VPWR VPWR sky130_fd_sc_hd__decap_3
X_293_ _424_/X _291_/Y _292_/Y VGND VGND VPWR VPWR _477_/D sky130_fd_sc_hd__a21bo_1
X_362_ _361_/A _361_/C _456_/Q VGND VGND VPWR VPWR _363_/B sky130_fd_sc_hd__o21a_1
XFILLER_12_11 VGND VGND VPWR VPWR sky130_fd_sc_hd__fill_2
X_276_ _479_/Q VGND VGND VPWR VPWR _278_/C sky130_fd_sc_hd__clkinv_4
X_414_ _413_/X _454_/Q _467_/Q VGND VGND VPWR VPWR _414_/X sky130_fd_sc_hd__mux2_1
X_259_ _259_/A _480_/Q VGND VGND VPWR VPWR _259_/Y sky130_fd_sc_hd__nand2_1
XFILLER_0_25 VGND VGND VPWR VPWR sky130_fd_sc_hd__fill_1
X_328_ _324_/Y _327_/Y _291_/Y VGND VGND VPWR VPWR _467_/D sky130_fd_sc_hd__o21a_1
XFILLER_18_87 VGND VGND VPWR VPWR sky130_fd_sc_hd__decap_4
XFILLER_19_140 VGND VGND VPWR VPWR sky130_fd_sc_hd__decap_3
XANTENNA__479__SET_B _347_/S VGND VGND VPWR VPWR sky130_fd_sc_hd__diode_2
Xoutput10 _399_/X VGND VGND VPWR VPWR core_clk sky130_fd_sc_hd__clkbuf_1
XFILLER_16_165 VGND VGND VPWR VPWR sky130_fd_sc_hd__fill_1
XTAP_179 VGND VPWR sky130_fd_sc_hd__tapvpwrvgnd_1
XTAP_168 VGND VPWR sky130_fd_sc_hd__tapvpwrvgnd_1
XTAP_157 VGND VPWR sky130_fd_sc_hd__tapvpwrvgnd_1
XTAP_146 VGND VPWR sky130_fd_sc_hd__tapvpwrvgnd_1
XTAP_135 VGND VPWR sky130_fd_sc_hd__tapvpwrvgnd_1
XTAP_124 VGND VPWR sky130_fd_sc_hd__tapvpwrvgnd_1
XTAP_113 VGND VPWR sky130_fd_sc_hd__tapvpwrvgnd_1
XTAP_102 VGND VPWR sky130_fd_sc_hd__tapvpwrvgnd_1
XANTENNA__283__A2 _439_/D VGND VGND VPWR VPWR sky130_fd_sc_hd__diode_2
X_430_ _385_/X _462_/Q _430_/S VGND VGND VPWR VPWR _430_/X sky130_fd_sc_hd__mux2_1
XFILLER_13_146 VGND VGND VPWR VPWR sky130_fd_sc_hd__fill_1
X_361_ _361_/A _456_/Q _361_/C VGND VGND VPWR VPWR _363_/A sky130_fd_sc_hd__nor3_1
Xrebuffer9 _454_/Q VGND VGND VPWR VPWR _341_/A sky130_fd_sc_hd__clkbuf_1
X_292_ _296_/A _477_/Q _335_/B VGND VGND VPWR VPWR _292_/Y sky130_fd_sc_hd__nand3_1
XFILLER_10_116 VGND VGND VPWR VPWR sky130_fd_sc_hd__fill_1
X_275_ _460_/Q VGND VGND VPWR VPWR _278_/B sky130_fd_sc_hd__clkinv_4
X_413_ _337_/Y _454_/Q _417_/S VGND VGND VPWR VPWR _413_/X sky130_fd_sc_hd__mux2_1
XFILLER_5_120 VGND VGND VPWR VPWR sky130_fd_sc_hd__decap_8
XFILLER_5_197 VGND VGND VPWR VPWR sky130_fd_sc_hd__decap_4
XFILLER_3_3 VGND VGND VPWR VPWR sky130_fd_sc_hd__decap_6
X_258_ _482_/Q _481_/Q VGND VGND VPWR VPWR _259_/A sky130_fd_sc_hd__nor2_1
XFILLER_9_79 VGND VGND VPWR VPWR sky130_fd_sc_hd__decap_8
XFILLER_9_68 VGND VGND VPWR VPWR sky130_fd_sc_hd__decap_4
X_327_ _325_/Y _326_/X _284_/C VGND VGND VPWR VPWR _327_/Y sky130_fd_sc_hd__o21ai_1
XFILLER_6_25 VGND VGND VPWR VPWR sky130_fd_sc_hd__fill_1
Xoutput11 _393_/Y VGND VGND VPWR VPWR resetb_sync sky130_fd_sc_hd__buf_2
XTAP_169 VGND VPWR sky130_fd_sc_hd__tapvpwrvgnd_1
XTAP_158 VGND VPWR sky130_fd_sc_hd__tapvpwrvgnd_1
XTAP_147 VGND VPWR sky130_fd_sc_hd__tapvpwrvgnd_1
XTAP_136 VGND VPWR sky130_fd_sc_hd__tapvpwrvgnd_1
XTAP_125 VGND VPWR sky130_fd_sc_hd__tapvpwrvgnd_1
XANTENNA__485__SET_B _347_/S VGND VGND VPWR VPWR sky130_fd_sc_hd__diode_2
XTAP_114 VGND VPWR sky130_fd_sc_hd__tapvpwrvgnd_1
XTAP_103 VGND VPWR sky130_fd_sc_hd__tapvpwrvgnd_1
X_291_ _291_/A _329_/B VGND VGND VPWR VPWR _291_/Y sky130_fd_sc_hd__nand2_2
X_360_ _473_/Q _472_/Q VGND VGND VPWR VPWR _360_/Y sky130_fd_sc_hd__xnor2_1
XFILLER_7_90 VGND VGND VPWR VPWR sky130_fd_sc_hd__fill_1
X_489_ _489_/CLK _489_/D _347_/S VGND VGND VPWR VPWR _489_/Q sky130_fd_sc_hd__dfrtp_1
X_274_ _493_/Q _494_/Q _492_/Q VGND VGND VPWR VPWR _434_/S sky130_fd_sc_hd__nor3b_2
X_343_ _463_/Q _343_/B VGND VGND VPWR VPWR _463_/D sky130_fd_sc_hd__xnor2_1
X_412_ _365_/X _363_/B _467_/Q VGND VGND VPWR VPWR _412_/X sky130_fd_sc_hd__mux2_1
XANTENNA__477__RESET_B _347_/S VGND VGND VPWR VPWR sky130_fd_sc_hd__diode_2
X_257_ _397_/S _257_/B _430_/S VGND VGND VPWR VPWR _262_/A sky130_fd_sc_hd__nand3_1
XFILLER_9_14 VGND VGND VPWR VPWR sky130_fd_sc_hd__decap_4
X_326_ _440_/D _440_/Q VGND VGND VPWR VPWR _326_/X sky130_fd_sc_hd__and2_1
XFILLER_18_45 VGND VGND VPWR VPWR sky130_fd_sc_hd__decap_12
XFILLER_11_201 VGND VGND VPWR VPWR sky130_fd_sc_hd__fill_1
X_309_ _466_/Q _465_/Q _464_/Q VGND VGND VPWR VPWR _417_/S sky130_fd_sc_hd__nor3b_2
XFILLER_6_37 VGND VGND VPWR VPWR sky130_fd_sc_hd__fill_2
XFILLER_19_120 VGND VGND VPWR VPWR sky130_fd_sc_hd__decap_8
XANTENNA__445__SET_B _347_/S VGND VGND VPWR VPWR sky130_fd_sc_hd__diode_2
Xoutput12 _400_/X VGND VGND VPWR VPWR user_clk sky130_fd_sc_hd__clkbuf_1
XFILLER_15_79 VGND VGND VPWR VPWR sky130_fd_sc_hd__fill_2
XTAP_159 VGND VPWR sky130_fd_sc_hd__tapvpwrvgnd_1
XTAP_148 VGND VPWR sky130_fd_sc_hd__tapvpwrvgnd_1
XTAP_137 VGND VPWR sky130_fd_sc_hd__tapvpwrvgnd_1
XTAP_126 VGND VPWR sky130_fd_sc_hd__tapvpwrvgnd_1
XTAP_115 VGND VPWR sky130_fd_sc_hd__tapvpwrvgnd_1
XTAP_104 VGND VPWR sky130_fd_sc_hd__tapvpwrvgnd_1
XANTENNA_input8_A sel[1] VGND VGND VPWR VPWR sky130_fd_sc_hd__diode_2
XFILLER_13_126 VGND VGND VPWR VPWR sky130_fd_sc_hd__decap_4
X_488_ _489_/CLK _488_/D _347_/S VGND VGND VPWR VPWR _488_/Q sky130_fd_sc_hd__dfstp_1
XANTENNA__422__A1 _439_/D VGND VGND VPWR VPWR sky130_fd_sc_hd__diode_2
X_290_ _290_/A _335_/B _290_/C VGND VGND VPWR VPWR _478_/D sky130_fd_sc_hd__nand3_1
XFILLER_12_14 VGND VGND VPWR VPWR sky130_fd_sc_hd__decap_3
XFILLER_10_118 VGND VGND VPWR VPWR sky130_fd_sc_hd__fill_1
Xclkbuf_0_pll_clk pll_clk VGND VGND VPWR VPWR clkbuf_0_pll_clk/X sky130_fd_sc_hd__clkbuf_16
X_273_ _271_/Y _272_/A _272_/Y VGND VGND VPWR VPWR _480_/D sky130_fd_sc_hd__o21ai_1
X_411_ _360_/Y _363_/Y _467_/Q VGND VGND VPWR VPWR _411_/X sky130_fd_sc_hd__mux2_1
X_342_ _342_/A _342_/B _468_/Q VGND VGND VPWR VPWR _343_/B sky130_fd_sc_hd__nand3_1
XFILLER_2_125 VGND VGND VPWR VPWR sky130_fd_sc_hd__decap_6
XFILLER_2_147 VGND VGND VPWR VPWR sky130_fd_sc_hd__decap_4
XFILLER_4_92 VGND VGND VPWR VPWR sky130_fd_sc_hd__fill_1
X_256_ _482_/Q _481_/Q _480_/Q VGND VGND VPWR VPWR _430_/S sky130_fd_sc_hd__nor3b_2
XFILLER_0_17 VGND VGND VPWR VPWR sky130_fd_sc_hd__decap_8
X_325_ _440_/D _440_/Q VGND VGND VPWR VPWR _325_/Y sky130_fd_sc_hd__nor2_1
XFILLER_18_57 VGND VGND VPWR VPWR sky130_fd_sc_hd__decap_6
X_239_ _243_/A _269_/B _489_/Q VGND VGND VPWR VPWR _239_/Y sky130_fd_sc_hd__nand3_1
X_308_ _471_/Q VGND VGND VPWR VPWR _310_/B sky130_fd_sc_hd__inv_2
XANTENNA__468__SET_B _347_/S VGND VGND VPWR VPWR sky130_fd_sc_hd__diode_2
XFILLER_19_154 VGND VGND VPWR VPWR sky130_fd_sc_hd__fill_2
XTAP_149 VGND VPWR sky130_fd_sc_hd__tapvpwrvgnd_1
XTAP_138 VGND VPWR sky130_fd_sc_hd__tapvpwrvgnd_1
XTAP_127 VGND VPWR sky130_fd_sc_hd__tapvpwrvgnd_1
XTAP_116 VGND VPWR sky130_fd_sc_hd__tapvpwrvgnd_1
XTAP_105 VGND VPWR sky130_fd_sc_hd__tapvpwrvgnd_1
XFILLER_13_138 VGND VGND VPWR VPWR sky130_fd_sc_hd__decap_8
XFILLER_13_105 VGND VGND VPWR VPWR sky130_fd_sc_hd__decap_4
X_487_ _437_/A1 _487_/D _347_/S VGND VGND VPWR VPWR _487_/Q sky130_fd_sc_hd__dfrtp_2
XFILLER_8_131 VGND VGND VPWR VPWR sky130_fd_sc_hd__decap_12
X_345__8 _399_/X VGND VGND VPWR VPWR _446_/CLK sky130_fd_sc_hd__inv_4
X_272_ _272_/A _402_/X VGND VGND VPWR VPWR _272_/Y sky130_fd_sc_hd__nand2_1
XFILLER_12_59 VGND VGND VPWR VPWR sky130_fd_sc_hd__decap_4
X_410_ _358_/Y _359_/Y _467_/Q VGND VGND VPWR VPWR _410_/X sky130_fd_sc_hd__mux2_1
X_341_ _341_/A VGND VGND VPWR VPWR _342_/B sky130_fd_sc_hd__clkinv_4
XANTENNA__486__RESET_B _347_/S VGND VGND VPWR VPWR sky130_fd_sc_hd__diode_2
X_255_ _483_/Q VGND VGND VPWR VPWR _257_/B sky130_fd_sc_hd__inv_2
XFILLER_0_29 VGND VGND VPWR VPWR sky130_fd_sc_hd__decap_3
XFILLER_2_115 VGND VGND VPWR VPWR sky130_fd_sc_hd__fill_2
X_324_ _324_/A _324_/B _438_/Q VGND VGND VPWR VPWR _324_/Y sky130_fd_sc_hd__nand3_1
XFILLER_1_3 VGND VGND VPWR VPWR sky130_fd_sc_hd__fill_1
X_238_ _238_/A _269_/B _238_/C VGND VGND VPWR VPWR _490_/D sky130_fd_sc_hd__nand3_1
X_307_ _456_/Q _455_/Q _454_/Q _306_/Y VGND VGND VPWR VPWR _398_/S sky130_fd_sc_hd__o211a_1
XFILLER_19_188 VGND VGND VPWR VPWR sky130_fd_sc_hd__decap_4
XFILLER_19_166 VGND VGND VPWR VPWR sky130_fd_sc_hd__decap_3
XFILLER_19_144 VGND VGND VPWR VPWR sky130_fd_sc_hd__fill_1
XFILLER_10_92 VGND VGND VPWR VPWR sky130_fd_sc_hd__fill_2
XFILLER_6_17 VGND VGND VPWR VPWR sky130_fd_sc_hd__decap_8
XFILLER_6_28 VGND VGND VPWR VPWR sky130_fd_sc_hd__decap_6
XFILLER_15_59 VGND VGND VPWR VPWR sky130_fd_sc_hd__decap_3
XTAP_139 VGND VPWR sky130_fd_sc_hd__tapvpwrvgnd_1
XTAP_128 VGND VPWR sky130_fd_sc_hd__tapvpwrvgnd_1
XTAP_117 VGND VPWR sky130_fd_sc_hd__tapvpwrvgnd_1
XPHY_0 VGND VGND VPWR VPWR sky130_fd_sc_hd__decap_3
XFILLER_7_82 VGND VGND VPWR VPWR sky130_fd_sc_hd__decap_8
XTAP_106 VGND VPWR sky130_fd_sc_hd__tapvpwrvgnd_1
X_486_ _489_/CLK _486_/D _347_/S VGND VGND VPWR VPWR _486_/Q sky130_fd_sc_hd__dfrtn_1
XFILLER_12_38 VGND VGND VPWR VPWR sky130_fd_sc_hd__fill_1
X_271_ _480_/Q VGND VGND VPWR VPWR _271_/Y sky130_fd_sc_hd__inv_2
X_340_ _470_/Q _469_/Q VGND VGND VPWR VPWR _342_/A sky130_fd_sc_hd__nor2_1
XFILLER_4_83 VGND VGND VPWR VPWR sky130_fd_sc_hd__decap_8
X_469_ _478_/CLK _469_/D _347_/S VGND VGND VPWR VPWR _469_/Q sky130_fd_sc_hd__dfrtp_2
X_254_ _462_/Q _461_/Q _460_/Q _253_/Y VGND VGND VPWR VPWR _397_/S sky130_fd_sc_hd__o211a_1
X_323_ _439_/Q _439_/D VGND VGND VPWR VPWR _324_/B sky130_fd_sc_hd__or2b_1
X_237_ _243_/A _353_/A _234_/B VGND VGND VPWR VPWR _238_/C sky130_fd_sc_hd__o21bai_1
X_306_ _474_/Q _473_/Q VGND VGND VPWR VPWR _306_/Y sky130_fd_sc_hd__nor2_1
XANTENNA__470__RESET_B _347_/S VGND VGND VPWR VPWR sky130_fd_sc_hd__diode_2
XFILLER_19_178 VGND VGND VPWR VPWR sky130_fd_sc_hd__decap_4
XFILLER_19_112 VGND VGND VPWR VPWR sky130_fd_sc_hd__decap_4
XFILLER_19_101 VGND VGND VPWR VPWR sky130_fd_sc_hd__decap_3
XFILLER_16_104 VGND VGND VPWR VPWR sky130_fd_sc_hd__fill_1
XFILLER_15_192 VGND VGND VPWR VPWR sky130_fd_sc_hd__decap_4
XTAP_129 VGND VPWR sky130_fd_sc_hd__tapvpwrvgnd_1
XTAP_118 VGND VPWR sky130_fd_sc_hd__tapvpwrvgnd_1
XPHY_1 VGND VGND VPWR VPWR sky130_fd_sc_hd__decap_3
XANTENNA__425__A1 _439_/D VGND VGND VPWR VPWR sky130_fd_sc_hd__diode_2
XFILLER_7_50 VGND VGND VPWR VPWR sky130_fd_sc_hd__fill_2
XTAP_107 VGND VPWR sky130_fd_sc_hd__tapvpwrvgnd_1
X_485_ _485_/CLK _485_/D _347_/S VGND VGND VPWR VPWR _485_/Q sky130_fd_sc_hd__dfstp_1
XANTENNA_input6_A sel2[2] VGND VGND VPWR VPWR sky130_fd_sc_hd__diode_2
X_270_ _270_/A _270_/B VGND VGND VPWR VPWR _481_/D sky130_fd_sc_hd__nand2_1
XFILLER_5_103 VGND VGND VPWR VPWR sky130_fd_sc_hd__fill_1
X_399_ _436_/X _355_/Y _449_/Q VGND VGND VPWR VPWR _399_/X sky130_fd_sc_hd__mux2_1
X_468_ _478_/CLK _468_/D _347_/S VGND VGND VPWR VPWR _468_/Q sky130_fd_sc_hd__dfstp_2
XFILLER_9_18 VGND VGND VPWR VPWR sky130_fd_sc_hd__fill_1
X_322_ _439_/D _439_/Q VGND VGND VPWR VPWR _324_/A sky130_fd_sc_hd__or2b_1
X_253_ _486_/Q _485_/Q VGND VGND VPWR VPWR _253_/Y sky130_fd_sc_hd__nor2_1
XFILLER_18_38 VGND VGND VPWR VPWR sky130_fd_sc_hd__fill_1
X_236_ _236_/A VGND VGND VPWR VPWR _243_/A sky130_fd_sc_hd__clkbuf_2
Xclkbuf_1_1_0_pll_clk90 clkbuf_0_pll_clk90/X VGND VGND VPWR VPWR _437_/A1 sky130_fd_sc_hd__clkbuf_2
X_219_ _219_/A VGND VGND VPWR VPWR _492_/D sky130_fd_sc_hd__clkbuf_1
XFILLER_16_127 VGND VGND VPWR VPWR sky130_fd_sc_hd__fill_2
XANTENNA_clkbuf_0_pll_clk_A pll_clk VGND VGND VPWR VPWR sky130_fd_sc_hd__diode_2
XANTENNA__449__RESET_B _347_/S VGND VGND VPWR VPWR sky130_fd_sc_hd__diode_2
XFILLER_15_160 VGND VGND VPWR VPWR sky130_fd_sc_hd__fill_1
XTAP_119 VGND VPWR sky130_fd_sc_hd__tapvpwrvgnd_1
XPHY_2 VGND VGND VPWR VPWR sky130_fd_sc_hd__decap_3
XTAP_108 VGND VPWR sky130_fd_sc_hd__tapvpwrvgnd_1
XFILLER_12_196 VGND VGND VPWR VPWR sky130_fd_sc_hd__fill_1
XFILLER_12_152 VGND VGND VPWR VPWR sky130_fd_sc_hd__fill_1
X_484_ _489_/CLK _484_/D _347_/S VGND VGND VPWR VPWR _484_/Q sky130_fd_sc_hd__dfrtn_1
X_398_ _291_/Y _467_/Q _398_/S VGND VGND VPWR VPWR _398_/X sky130_fd_sc_hd__mux2_2
XANTENNA__464__RESET_B _347_/S VGND VGND VPWR VPWR sky130_fd_sc_hd__diode_2
X_467_ _435_/A1 _467_/D _347_/S VGND VGND VPWR VPWR _467_/Q sky130_fd_sc_hd__dfrtp_4
XFILLER_13_61 VGND VGND VPWR VPWR sky130_fd_sc_hd__fill_2
X_321_ _321_/A VGND VGND VPWR VPWR _468_/D sky130_fd_sc_hd__clkbuf_1
Xclkbuf_1_0_0_pll_clk90 clkbuf_0_pll_clk90/X VGND VGND VPWR VPWR _489_/CLK sky130_fd_sc_hd__clkbuf_2
XANTENNA__463__SET_B _347_/S VGND VGND VPWR VPWR sky130_fd_sc_hd__diode_2
X_235_ _263_/B VGND VGND VPWR VPWR _269_/B sky130_fd_sc_hd__clkbuf_2
X_304_ _304_/A VGND VGND VPWR VPWR _472_/D sky130_fd_sc_hd__clkbuf_1
XFILLER_10_73 VGND VGND VPWR VPWR sky130_fd_sc_hd__fill_2
XFILLER_10_40 VGND VGND VPWR VPWR sky130_fd_sc_hd__decap_3
XFILLER_19_82 VGND VGND VPWR VPWR sky130_fd_sc_hd__fill_2
X_218_ _409_/X _492_/Q _460_/Q VGND VGND VPWR VPWR _219_/A sky130_fd_sc_hd__mux2_1
Xclkbuf_1_1_0_ext_clk clkbuf_0_ext_clk/X VGND VGND VPWR VPWR _436_/A0 sky130_fd_sc_hd__clkbuf_2
XTAP_109 VGND VPWR sky130_fd_sc_hd__tapvpwrvgnd_1
XANTENNA__489__RESET_B _347_/S VGND VGND VPWR VPWR sky130_fd_sc_hd__diode_2
XPHY_3 VGND VGND VPWR VPWR sky130_fd_sc_hd__decap_3
X_483_ _483_/CLK _483_/D _347_/S VGND VGND VPWR VPWR _483_/Q sky130_fd_sc_hd__dfstp_1
XFILLER_16_50 VGND VGND VPWR VPWR sky130_fd_sc_hd__decap_8
Xclkbuf_1_0_0_pll_clk clkbuf_0_pll_clk/X VGND VGND VPWR VPWR _478_/CLK sky130_fd_sc_hd__clkbuf_2
X_397_ _229_/Y _491_/Q _397_/S VGND VGND VPWR VPWR _397_/X sky130_fd_sc_hd__mux2_1
X_466_ _435_/A1 _466_/D _347_/S VGND VGND VPWR VPWR _466_/Q sky130_fd_sc_hd__dfrtn_1
X_251_ _251_/A VGND VGND VPWR VPWR _484_/D sky130_fd_sc_hd__clkbuf_1
X_320_ _425_/X _468_/Q _320_/S VGND VGND VPWR VPWR _321_/A sky130_fd_sc_hd__mux2_1
X_449_ _435_/A1 _449_/D _347_/S VGND VGND VPWR VPWR _449_/Q sky130_fd_sc_hd__dfrtp_1
X_234_ _353_/A _234_/B _234_/C VGND VGND VPWR VPWR _238_/A sky130_fd_sc_hd__nand3b_1
X_303_ _472_/Q _410_/X _398_/X VGND VGND VPWR VPWR _304_/A sky130_fd_sc_hd__mux2_1
XFILLER_19_72 VGND VGND VPWR VPWR sky130_fd_sc_hd__decap_6
X_217_ _217_/A VGND VGND VPWR VPWR _493_/D sky130_fd_sc_hd__clkbuf_1
XFILLER_18_170 VGND VGND VPWR VPWR sky130_fd_sc_hd__fill_2
XPHY_4 VGND VGND VPWR VPWR sky130_fd_sc_hd__decap_3
XFILLER_7_53 VGND VGND VPWR VPWR sky130_fd_sc_hd__decap_8
XFILLER_7_75 VGND VGND VPWR VPWR sky130_fd_sc_hd__decap_3
X_482_ _489_/CLK _482_/D _347_/S VGND VGND VPWR VPWR _482_/Q sky130_fd_sc_hd__dfrtn_1
XFILLER_16_62 VGND VGND VPWR VPWR sky130_fd_sc_hd__decap_3
XFILLER_16_40 VGND VGND VPWR VPWR sky130_fd_sc_hd__fill_1
XANTENNA__446__SET_B _347_/S VGND VGND VPWR VPWR sky130_fd_sc_hd__diode_2
X_465_ _465_/CLK _465_/D _347_/S VGND VGND VPWR VPWR _465_/Q sky130_fd_sc_hd__dfstp_1
XANTENNA_input4_A sel2[0] VGND VGND VPWR VPWR sky130_fd_sc_hd__diode_2
X_250_ _484_/Q _427_/X _397_/X VGND VGND VPWR VPWR _251_/A sky130_fd_sc_hd__mux2_1
X_305__5 _435_/A1 VGND VGND VPWR VPWR _471_/CLK sky130_fd_sc_hd__inv_4
X_379_ _460_/Q _461_/Q _462_/Q VGND VGND VPWR VPWR _380_/B sky130_fd_sc_hd__o21a_1
XANTENNA__492__SET_B _347_/S VGND VGND VPWR VPWR sky130_fd_sc_hd__diode_2
X_448_ _435_/A1 _448_/D _347_/S VGND VGND VPWR VPWR _449_/D sky130_fd_sc_hd__dfrtp_1
XANTENNA__347__S _347_/S VGND VGND VPWR VPWR sky130_fd_sc_hd__diode_2
X_233_ _490_/Q VGND VGND VPWR VPWR _234_/B sky130_fd_sc_hd__inv_2
XFILLER_1_77 VGND VGND VPWR VPWR sky130_fd_sc_hd__fill_1
X_302_ _302_/A VGND VGND VPWR VPWR _473_/D sky130_fd_sc_hd__clkbuf_1
XFILLER_19_116 VGND VGND VPWR VPWR sky130_fd_sc_hd__fill_1
XFILLER_19_105 VGND VGND VPWR VPWR sky130_fd_sc_hd__decap_4
XFILLER_19_51 VGND VGND VPWR VPWR sky130_fd_sc_hd__fill_1
XFILLER_18_3 VGND VGND VPWR VPWR sky130_fd_sc_hd__fill_1
X_216_ _434_/X _493_/Q _460_/Q VGND VGND VPWR VPWR _217_/A sky130_fd_sc_hd__mux2_1
XFILLER_15_196 VGND VGND VPWR VPWR sky130_fd_sc_hd__fill_1
XPHY_5 VGND VGND VPWR VPWR sky130_fd_sc_hd__decap_3
XFILLER_7_98 VGND VGND VPWR VPWR sky130_fd_sc_hd__decap_6
X_481_ _481_/CLK _481_/D _347_/S VGND VGND VPWR VPWR _481_/Q sky130_fd_sc_hd__dfstp_1
XFILLER_12_144 VGND VGND VPWR VPWR sky130_fd_sc_hd__decap_8
X_464_ _435_/A1 _464_/D _347_/S VGND VGND VPWR VPWR _464_/Q sky130_fd_sc_hd__dfrtn_1
X_395_ _494_/Q _395_/B VGND VGND VPWR VPWR _494_/D sky130_fd_sc_hd__xor2_1
XFILLER_4_11 VGND VGND VPWR VPWR sky130_fd_sc_hd__fill_2
XANTENNA__452__SET_B _347_/S VGND VGND VPWR VPWR sky130_fd_sc_hd__diode_2
X_447_ _447_/CLK _447_/D _347_/S VGND VGND VPWR VPWR hold2/A sky130_fd_sc_hd__dfstp_1
X_378_ _460_/Q _462_/Q _461_/Q VGND VGND VPWR VPWR _380_/A sky130_fd_sc_hd__nor3_1
X_232_ _232_/A _487_/Q VGND VGND VPWR VPWR _353_/A sky130_fd_sc_hd__nand2_1
X_301_ _473_/Q _411_/X _398_/X VGND VGND VPWR VPWR _302_/A sky130_fd_sc_hd__mux2_1
XFILLER_1_45 VGND VGND VPWR VPWR sky130_fd_sc_hd__decap_4
XFILLER_19_128 VGND VGND VPWR VPWR sky130_fd_sc_hd__fill_2
XPHY_6 VGND VGND VPWR VPWR sky130_fd_sc_hd__decap_3
XANTENNA__467__RESET_B _347_/S VGND VGND VPWR VPWR sky130_fd_sc_hd__diode_2
X_480_ _489_/CLK _480_/D _347_/S VGND VGND VPWR VPWR _480_/Q sky130_fd_sc_hd__dfrtn_1
XFILLER_8_127 VGND VGND VPWR VPWR sky130_fd_sc_hd__fill_2
XFILLER_5_108 VGND VGND VPWR VPWR sky130_fd_sc_hd__decap_12
X_394_ _493_/Q _460_/Q _492_/Q VGND VGND VPWR VPWR _395_/B sky130_fd_sc_hd__nor3_1
XFILLER_4_34 VGND VGND VPWR VPWR sky130_fd_sc_hd__fill_1
X_463_ _435_/A1 _463_/D _347_/S VGND VGND VPWR VPWR _463_/Q sky130_fd_sc_hd__dfstp_1
XANTENNA__482__RESET_B _347_/S VGND VGND VPWR VPWR sky130_fd_sc_hd__diode_2
X_446_ _446_/CLK hold2/X _347_/S VGND VGND VPWR VPWR hold3/A sky130_fd_sc_hd__dfstp_1
X_377_ _485_/Q _484_/Q VGND VGND VPWR VPWR _377_/Y sky130_fd_sc_hd__xnor2_1
XFILLER_1_155 VGND VGND VPWR VPWR sky130_fd_sc_hd__fill_1
XFILLER_8_3 VGND VGND VPWR VPWR sky130_fd_sc_hd__decap_6
Xclkbuf_0_ext_clk ext_clk VGND VGND VPWR VPWR clkbuf_0_ext_clk/X sky130_fd_sc_hd__clkbuf_16
X_231_ _489_/Q _488_/Q VGND VGND VPWR VPWR _232_/A sky130_fd_sc_hd__nor2_1
X_429_ _382_/X _380_/B _491_/Q VGND VGND VPWR VPWR _429_/X sky130_fd_sc_hd__mux2_1
XFILLER_19_53 VGND VGND VPWR VPWR sky130_fd_sc_hd__decap_12
XFILLER_19_20 VGND VGND VPWR VPWR sky130_fd_sc_hd__fill_1
Xinput1 ext_clk_sel VGND VGND VPWR VPWR _392_/A sky130_fd_sc_hd__dlymetal6s2s_1
XTAP_90 VGND VPWR sky130_fd_sc_hd__tapvpwrvgnd_1
XPHY_7 VGND VGND VPWR VPWR sky130_fd_sc_hd__decap_3
XFILLER_7_67 VGND VGND VPWR VPWR sky130_fd_sc_hd__decap_8
XANTENNA__481__SET_B _347_/S VGND VGND VPWR VPWR sky130_fd_sc_hd__diode_2
X_393_ _393_/A _445_/Q VGND VGND VPWR VPWR _393_/Y sky130_fd_sc_hd__nor2_1
X_462_ _357_/Y _462_/D _347_/S VGND VGND VPWR VPWR _462_/Q sky130_fd_sc_hd__dfrtp_4
XFILLER_4_57 VGND VGND VPWR VPWR sky130_fd_sc_hd__fill_1
XFILLER_4_131 VGND VGND VPWR VPWR sky130_fd_sc_hd__decap_12
XANTENNA__451__RESET_B _347_/S VGND VGND VPWR VPWR sky130_fd_sc_hd__diode_2
X_445_ _445_/CLK hold3/X _347_/S VGND VGND VPWR VPWR _445_/Q sky130_fd_sc_hd__dfstp_1
X_376_ _460_/Q _461_/Q VGND VGND VPWR VPWR _376_/Y sky130_fd_sc_hd__xnor2_1
XANTENNA_input2_A ext_reset VGND VGND VPWR VPWR sky130_fd_sc_hd__diode_2
X_230_ _222_/Y _226_/Y _229_/Y VGND VGND VPWR VPWR _491_/D sky130_fd_sc_hd__o21a_1
X_428_ _377_/Y _380_/Y _491_/Q VGND VGND VPWR VPWR _428_/X sky130_fd_sc_hd__mux2_1
XFILLER_1_25 VGND VGND VPWR VPWR sky130_fd_sc_hd__fill_1
X_359_ _361_/A _361_/C VGND VGND VPWR VPWR _359_/Y sky130_fd_sc_hd__xnor2_1
Xinput2 ext_reset VGND VGND VPWR VPWR _393_/A sky130_fd_sc_hd__clkbuf_1
X_267__3 _489_/CLK VGND VGND VPWR VPWR _481_/CLK sky130_fd_sc_hd__inv_4
XTAP_80 VGND VPWR sky130_fd_sc_hd__tapvpwrvgnd_1
XTAP_91 VGND VPWR sky130_fd_sc_hd__tapvpwrvgnd_1
XFILLER_18_196 VGND VGND VPWR VPWR sky130_fd_sc_hd__fill_1
XANTENNA__458__SET_B _347_/S VGND VGND VPWR VPWR sky130_fd_sc_hd__diode_2
XFILLER_16_3 VGND VGND VPWR VPWR sky130_fd_sc_hd__decap_6
XPHY_8 VGND VGND VPWR VPWR sky130_fd_sc_hd__decap_3
XFILLER_16_88 VGND VGND VPWR VPWR sky130_fd_sc_hd__decap_3
XFILLER_16_66 VGND VGND VPWR VPWR sky130_fd_sc_hd__decap_4
X_461_ _357_/Y _461_/D _347_/S VGND VGND VPWR VPWR _461_/Q sky130_fd_sc_hd__dfstp_4
XFILLER_4_14 VGND VGND VPWR VPWR sky130_fd_sc_hd__decap_6
XFILLER_4_47 VGND VGND VPWR VPWR sky130_fd_sc_hd__fill_2
X_392_ _392_/A VGND VGND VPWR VPWR _448_/D sky130_fd_sc_hd__clkinv_4
XFILLER_13_34 VGND VGND VPWR VPWR sky130_fd_sc_hd__decap_8
XANTENNA__491__RESET_B _347_/S VGND VGND VPWR VPWR sky130_fd_sc_hd__diode_2
X_444_ _478_/CLK _444_/D VGND VGND VPWR VPWR hold1/A sky130_fd_sc_hd__dfxtp_1
X_375_ _484_/Q VGND VGND VPWR VPWR _375_/Y sky130_fd_sc_hd__clkinv_2
X_427_ _375_/Y _376_/Y _491_/Q VGND VGND VPWR VPWR _427_/X sky130_fd_sc_hd__mux2_1
X_358_ _472_/Q VGND VGND VPWR VPWR _358_/Y sky130_fd_sc_hd__clkinv_2
Xinput3 resetb VGND VGND VPWR VPWR _347_/S sky130_fd_sc_hd__buf_12
XTAP_70 VGND VPWR sky130_fd_sc_hd__tapvpwrvgnd_1
XTAP_81 VGND VPWR sky130_fd_sc_hd__tapvpwrvgnd_1
X_289_ _296_/A _352_/A _284_/B VGND VGND VPWR VPWR _290_/C sky130_fd_sc_hd__o21bai_1
XTAP_92 VGND VPWR sky130_fd_sc_hd__tapvpwrvgnd_1
XFILLER_19_66 VGND VGND VPWR VPWR sky130_fd_sc_hd__fill_1