* NGSPICE file created from digital_pll.ext - technology: sky130A

* Black-box entry subcircuit for sky130_fd_sc_hd__fill_2 abstract view
.subckt sky130_fd_sc_hd__fill_2 VGND VNB VPB VPWR
.ends

* Black-box entry subcircuit for sky130_fd_sc_hd__a211o_2 abstract view
.subckt sky130_fd_sc_hd__a211o_2 A1 A2 B1 C1 VGND VNB VPB VPWR X
.ends

* Black-box entry subcircuit for sky130_fd_sc_hd__decap_4 abstract view
.subckt sky130_fd_sc_hd__decap_4 VGND VNB VPB VPWR
.ends

* Black-box entry subcircuit for sky130_fd_sc_hd__fill_1 abstract view
.subckt sky130_fd_sc_hd__fill_1 VGND VNB VPB VPWR
.ends

* Black-box entry subcircuit for sky130_fd_sc_hd__xnor2_2 abstract view
.subckt sky130_fd_sc_hd__xnor2_2 A B VGND VNB VPB VPWR Y
.ends

* Black-box entry subcircuit for sky130_fd_sc_hd__nor2_2 abstract view
.subckt sky130_fd_sc_hd__nor2_2 A B VGND VNB VPB VPWR Y
.ends

* Black-box entry subcircuit for sky130_fd_sc_hd__clkinv_1 abstract view
.subckt sky130_fd_sc_hd__clkinv_1 A VGND VNB VPB VPWR Y
.ends

* Black-box entry subcircuit for sky130_fd_sc_hd__o21ai_2 abstract view
.subckt sky130_fd_sc_hd__o21ai_2 A1 A2 B1 VGND VNB VPB VPWR Y
.ends

* Black-box entry subcircuit for sky130_fd_sc_hd__buf_2 abstract view
.subckt sky130_fd_sc_hd__buf_2 A VGND VNB VPB VPWR X
.ends

* Black-box entry subcircuit for sky130_fd_sc_hd__einvp_2 abstract view
.subckt sky130_fd_sc_hd__einvp_2 A TE VGND VNB VPB VPWR Z
.ends

* Black-box entry subcircuit for sky130_fd_sc_hd__o21a_2 abstract view
.subckt sky130_fd_sc_hd__o21a_2 A1 A2 B1 VGND VNB VPB VPWR X
.ends

* Black-box entry subcircuit for sky130_fd_sc_hd__decap_3 abstract view
.subckt sky130_fd_sc_hd__decap_3 VGND VNB VPB VPWR
.ends

* Black-box entry subcircuit for sky130_fd_sc_hd__diode_2 abstract view
.subckt sky130_fd_sc_hd__diode_2 DIODE VGND VNB VPB VPWR
.ends

* Black-box entry subcircuit for sky130_fd_sc_hd__einvn_8 abstract view
.subckt sky130_fd_sc_hd__einvn_8 A TE_B VGND VNB VPB VPWR Z
.ends

* Black-box entry subcircuit for sky130_fd_sc_hd__tapvpwrvgnd_1 abstract view
.subckt sky130_fd_sc_hd__tapvpwrvgnd_1 VGND VPWR
.ends

* Black-box entry subcircuit for sky130_fd_sc_hd__o2111a_2 abstract view
.subckt sky130_fd_sc_hd__o2111a_2 A1 A2 B1 C1 D1 VGND VNB VPB VPWR X
.ends

* Black-box entry subcircuit for sky130_fd_sc_hd__inv_2 abstract view
.subckt sky130_fd_sc_hd__inv_2 A VGND VNB VPB VPWR Y
.ends

* Black-box entry subcircuit for sky130_fd_sc_hd__mux2_2 abstract view
.subckt sky130_fd_sc_hd__mux2_2 A0 A1 S VGND VNB VPB VPWR X
.ends

* Black-box entry subcircuit for sky130_fd_sc_hd__nand2_2 abstract view
.subckt sky130_fd_sc_hd__nand2_2 A B VGND VNB VPB VPWR Y
.ends

* Black-box entry subcircuit for sky130_fd_sc_hd__a21o_2 abstract view
.subckt sky130_fd_sc_hd__a21o_2 A1 A2 B1 VGND VNB VPB VPWR X
.ends

* Black-box entry subcircuit for sky130_fd_sc_hd__einvn_4 abstract view
.subckt sky130_fd_sc_hd__einvn_4 A TE_B VGND VNB VPB VPWR Z
.ends

* Black-box entry subcircuit for sky130_fd_sc_hd__o31a_2 abstract view
.subckt sky130_fd_sc_hd__o31a_2 A1 A2 A3 B1 VGND VNB VPB VPWR X
.ends

* Black-box entry subcircuit for sky130_fd_sc_hd__o211a_2 abstract view
.subckt sky130_fd_sc_hd__o211a_2 A1 A2 B1 C1 VGND VNB VPB VPWR X
.ends

* Black-box entry subcircuit for sky130_fd_sc_hd__decap_6 abstract view
.subckt sky130_fd_sc_hd__decap_6 VGND VNB VPB VPWR
.ends

* Black-box entry subcircuit for sky130_fd_sc_hd__and2_2 abstract view
.subckt sky130_fd_sc_hd__and2_2 A B VGND VNB VPB VPWR X
.ends

* Black-box entry subcircuit for sky130_fd_sc_hd__clkbuf_2 abstract view
.subckt sky130_fd_sc_hd__clkbuf_2 A VGND VNB VPB VPWR X
.ends

* Black-box entry subcircuit for sky130_fd_sc_hd__and3b_2 abstract view
.subckt sky130_fd_sc_hd__and3b_2 A_N B C VGND VNB VPB VPWR X
.ends

* Black-box entry subcircuit for sky130_fd_sc_hd__o22a_2 abstract view
.subckt sky130_fd_sc_hd__o22a_2 A1 A2 B1 B2 VGND VNB VPB VPWR X
.ends

* Black-box entry subcircuit for sky130_fd_sc_hd__nand3b_2 abstract view
.subckt sky130_fd_sc_hd__nand3b_2 A_N B C VGND VNB VPB VPWR Y
.ends

* Black-box entry subcircuit for sky130_fd_sc_hd__clkbuf_1 abstract view
.subckt sky130_fd_sc_hd__clkbuf_1 A VGND VNB VPB VPWR X
.ends

* Black-box entry subcircuit for sky130_fd_sc_hd__nand4b_2 abstract view
.subckt sky130_fd_sc_hd__nand4b_2 A_N B C D VGND VNB VPB VPWR Y
.ends

* Black-box entry subcircuit for sky130_fd_sc_hd__a22o_2 abstract view
.subckt sky130_fd_sc_hd__a22o_2 A1 A2 B1 B2 VGND VNB VPB VPWR X
.ends

* Black-box entry subcircuit for sky130_fd_sc_hd__nand3_2 abstract view
.subckt sky130_fd_sc_hd__nand3_2 A B C VGND VNB VPB VPWR Y
.ends

* Black-box entry subcircuit for sky130_fd_sc_hd__xor2_2 abstract view
.subckt sky130_fd_sc_hd__xor2_2 A B VGND VNB VPB VPWR X
.ends

* Black-box entry subcircuit for sky130_fd_sc_hd__nand2b_2 abstract view
.subckt sky130_fd_sc_hd__nand2b_2 A_N B VGND VNB VPB VPWR Y
.ends

* Black-box entry subcircuit for sky130_fd_sc_hd__a21boi_2 abstract view
.subckt sky130_fd_sc_hd__a21boi_2 A1 A2 B1_N VGND VNB VPB VPWR Y
.ends

* Black-box entry subcircuit for sky130_fd_sc_hd__a32o_2 abstract view
.subckt sky130_fd_sc_hd__a32o_2 A1 A2 A3 B1 B2 VGND VNB VPB VPWR X
.ends

* Black-box entry subcircuit for sky130_fd_sc_hd__dfrtp_2 abstract view
.subckt sky130_fd_sc_hd__dfrtp_2 CLK D RESET_B VGND VNB VPB VPWR Q
.ends

* Black-box entry subcircuit for sky130_fd_sc_hd__o2bb2a_2 abstract view
.subckt sky130_fd_sc_hd__o2bb2a_2 A1_N A2_N B1 B2 VGND VNB VPB VPWR X
.ends

* Black-box entry subcircuit for sky130_fd_sc_hd__einvp_1 abstract view
.subckt sky130_fd_sc_hd__einvp_1 A TE VGND VNB VPB VPWR Z
.ends

* Black-box entry subcircuit for sky130_ef_sc_hd__decap_12 abstract view
.subckt sky130_ef_sc_hd__decap_12 VGND VNB VPB VPWR
.ends

* Black-box entry subcircuit for sky130_fd_sc_hd__a21oi_2 abstract view
.subckt sky130_fd_sc_hd__a21oi_2 A1 A2 B1 VGND VNB VPB VPWR Y
.ends

* Black-box entry subcircuit for sky130_fd_sc_hd__and4b_2 abstract view
.subckt sky130_fd_sc_hd__and4b_2 A_N B C D VGND VNB VPB VPWR X
.ends

* Black-box entry subcircuit for sky130_fd_sc_hd__o221a_2 abstract view
.subckt sky130_fd_sc_hd__o221a_2 A1 A2 B1 B2 C1 VGND VNB VPB VPWR X
.ends

* Black-box entry subcircuit for sky130_fd_sc_hd__and3_2 abstract view
.subckt sky130_fd_sc_hd__and3_2 A B C VGND VNB VPB VPWR X
.ends

* Black-box entry subcircuit for sky130_fd_sc_hd__and2b_2 abstract view
.subckt sky130_fd_sc_hd__and2b_2 A_N B VGND VNB VPB VPWR X
.ends

* Black-box entry subcircuit for sky130_fd_sc_hd__o21ba_2 abstract view
.subckt sky130_fd_sc_hd__o21ba_2 A1 A2 B1_N VGND VNB VPB VPWR X
.ends

* Black-box entry subcircuit for sky130_fd_sc_hd__o32a_2 abstract view
.subckt sky130_fd_sc_hd__o32a_2 A1 A2 A3 B1 B2 VGND VNB VPB VPWR X
.ends

* Black-box entry subcircuit for sky130_fd_sc_hd__clkbuf_16 abstract view
.subckt sky130_fd_sc_hd__clkbuf_16 A VGND VNB VPB VPWR X
.ends

* Black-box entry subcircuit for sky130_fd_sc_hd__decap_8 abstract view
.subckt sky130_fd_sc_hd__decap_8 VGND VNB VPB VPWR
.ends

* Black-box entry subcircuit for sky130_fd_sc_hd__a31o_2 abstract view
.subckt sky130_fd_sc_hd__a31o_2 A1 A2 A3 B1 VGND VNB VPB VPWR X
.ends

* Black-box entry subcircuit for sky130_fd_sc_hd__clkinv_2 abstract view
.subckt sky130_fd_sc_hd__clkinv_2 A VGND VNB VPB VPWR Y
.ends

* Black-box entry subcircuit for sky130_fd_sc_hd__clkinv_8 abstract view
.subckt sky130_fd_sc_hd__clkinv_8 A VGND VNB VPB VPWR Y
.ends

* Black-box entry subcircuit for sky130_fd_sc_hd__conb_1 abstract view
.subckt sky130_fd_sc_hd__conb_1 VGND VNB VPB VPWR HI LO
.ends

* Black-box entry subcircuit for sky130_fd_sc_hd__or2_2 abstract view
.subckt sky130_fd_sc_hd__or2_2 A B VGND VNB VPB VPWR X
.ends

* Black-box entry subcircuit for sky130_fd_sc_hd__nand4_2 abstract view
.subckt sky130_fd_sc_hd__nand4_2 A B C D VGND VNB VPB VPWR Y
.ends

.subckt digital_pll VGND VPWR clockp[0] clockp[1] dco div[0] div[1] div[2] div[3]
+ div[4] enable ext_trim[0] ext_trim[10] ext_trim[11] ext_trim[12] ext_trim[13] ext_trim[14]
+ ext_trim[15] ext_trim[16] ext_trim[17] ext_trim[18] ext_trim[19] ext_trim[1] ext_trim[20]
+ ext_trim[21] ext_trim[22] ext_trim[23] ext_trim[24] ext_trim[25] ext_trim[2] ext_trim[3]
+ ext_trim[4] ext_trim[5] ext_trim[6] ext_trim[7] ext_trim[8] ext_trim[9] osc resetb
XFILLER_22_177 VGND VGND VPWR VPWR sky130_fd_sc_hd__fill_2
XFILLER_22_166 VGND VGND VPWR VPWR sky130_fd_sc_hd__fill_2
X_363_ _348_/X ext_trim[2] _398_/B _362_/Y VGND VGND VPWR VPWR _363_/X sky130_fd_sc_hd__a211o_2
XFILLER_13_177 VGND VGND VPWR VPWR sky130_fd_sc_hd__decap_4
XFILLER_13_166 VGND VGND VPWR VPWR sky130_fd_sc_hd__fill_2
XFILLER_13_111 VGND VGND VPWR VPWR sky130_fd_sc_hd__fill_1
X_294_ _397_/A _325_/A VGND VGND VPWR VPWR _313_/A sky130_fd_sc_hd__xnor2_2
X_432_ _437_/A _433_/B VGND VGND VPWR VPWR _432_/Y sky130_fd_sc_hd__nor2_2
Xringosc.dstage\[1\].id.delayint0 ringosc.dstage\[1\].id.delayen1/Z VGND VGND VPWR
+ VPWR ringosc.dstage\[1\].id.delayen0/A sky130_fd_sc_hd__clkinv_1
X_415_ _376_/A _370_/A _468_/Q VGND VGND VPWR VPWR _416_/B sky130_fd_sc_hd__o21ai_2
XFILLER_10_136 VGND VGND VPWR VPWR sky130_fd_sc_hd__decap_4
XFILLER_10_125 VGND VGND VPWR VPWR sky130_fd_sc_hd__fill_2
X_346_ _346_/A VGND VGND VPWR VPWR _456_/D sky130_fd_sc_hd__buf_2
X_277_ _420_/B _302_/A VGND VGND VPWR VPWR _278_/D sky130_fd_sc_hd__nor2_2
Xringosc.dstage\[11\].id.delayen1 ringosc.dstage\[11\].id.delayen1/A _423_/X VGND
+ VGND VPWR VPWR ringosc.dstage\[11\].id.delayen1/Z sky130_fd_sc_hd__einvp_2
X_329_ _463_/Q _291_/X _328_/Y VGND VGND VPWR VPWR _463_/D sky130_fd_sc_hd__o21a_2
XFILLER_9_22 VGND VGND VPWR VPWR sky130_fd_sc_hd__fill_2
XFILLER_0_57 VGND VGND VPWR VPWR sky130_fd_sc_hd__fill_1
XFILLER_0_24 VGND VGND VPWR VPWR sky130_fd_sc_hd__decap_4
XFILLER_2_187 VGND VGND VPWR VPWR sky130_fd_sc_hd__decap_3
XANTENNA__392__A2 ext_trim[13] VGND VGND VPWR VPWR sky130_fd_sc_hd__diode_2
XANTENNA__383__A2 ext_trim[9] VGND VGND VPWR VPWR sky130_fd_sc_hd__diode_2
XFILLER_20_54 VGND VGND VPWR VPWR sky130_fd_sc_hd__fill_2
Xringosc.dstage\[10\].id.delayenb0 ringosc.dstage\[10\].id.delayenb1/A _385_/X VGND
+ VGND VPWR VPWR ringosc.dstage\[10\].id.delayen0/Z sky130_fd_sc_hd__einvn_8
Xringosc.dstage\[9\].id.delayenb0 ringosc.dstage\[9\].id.delayenb1/A _383_/X VGND
+ VGND VPWR VPWR ringosc.dstage\[9\].id.delayen0/Z sky130_fd_sc_hd__einvn_8
XFILLER_13_3 VGND VGND VPWR VPWR sky130_fd_sc_hd__decap_4
XFILLER_6_12 VGND VGND VPWR VPWR sky130_fd_sc_hd__fill_2
XTAP_112 VGND VPWR sky130_fd_sc_hd__tapvpwrvgnd_1
XTAP_101 VGND VPWR sky130_fd_sc_hd__tapvpwrvgnd_1
XFILLER_13_189 VGND VGND VPWR VPWR sky130_fd_sc_hd__fill_1
XFILLER_13_145 VGND VGND VPWR VPWR sky130_fd_sc_hd__fill_2
X_362_ _397_/A _438_/A VGND VGND VPWR VPWR _362_/Y sky130_fd_sc_hd__nor2_2
XFILLER_13_123 VGND VGND VPWR VPWR sky130_fd_sc_hd__decap_3
X_293_ _293_/A VGND VGND VPWR VPWR _328_/B sky130_fd_sc_hd__buf_2
XFILLER_9_138 VGND VGND VPWR VPWR sky130_fd_sc_hd__fill_2
X_431_ _437_/A _433_/B VGND VGND VPWR VPWR _431_/Y sky130_fd_sc_hd__nor2_2
XFILLER_3_57 VGND VGND VPWR VPWR sky130_fd_sc_hd__fill_1
XFILLER_8_171 VGND VGND VPWR VPWR sky130_fd_sc_hd__fill_2
XFILLER_12_99 VGND VGND VPWR VPWR sky130_fd_sc_hd__fill_2
XFILLER_12_44 VGND VGND VPWR VPWR sky130_fd_sc_hd__fill_2
XFILLER_6_108 VGND VGND VPWR VPWR sky130_fd_sc_hd__fill_1
XANTENNA__410__A1 _428_/A VGND VGND VPWR VPWR sky130_fd_sc_hd__diode_2
X_414_ _406_/B _359_/A _371_/Y _403_/B _413_/X VGND VGND VPWR VPWR _414_/X sky130_fd_sc_hd__o2111a_2
X_276_ _465_/Q VGND VGND VPWR VPWR _302_/A sky130_fd_sc_hd__inv_2
X_345_ _455_/Q _456_/Q _345_/S VGND VGND VPWR VPWR _346_/A sky130_fd_sc_hd__mux2_2
XFILLER_5_174 VGND VGND VPWR VPWR sky130_fd_sc_hd__fill_2
X_328_ _463_/Q _328_/B VGND VGND VPWR VPWR _328_/Y sky130_fd_sc_hd__nand2_2
XFILLER_9_67 VGND VGND VPWR VPWR sky130_fd_sc_hd__fill_1
XFILLER_9_12 VGND VGND VPWR VPWR sky130_fd_sc_hd__fill_2
XFILLER_2_177 VGND VGND VPWR VPWR sky130_fd_sc_hd__fill_1
X_259_ _288_/B _288_/C _258_/X VGND VGND VPWR VPWR _259_/X sky130_fd_sc_hd__a21o_2
XFILLER_18_98 VGND VGND VPWR VPWR sky130_fd_sc_hd__fill_2
XFILLER_19_162 VGND VGND VPWR VPWR sky130_fd_sc_hd__fill_2
Xringosc.dstage\[9\].id.delayenb1 ringosc.dstage\[9\].id.delayenb1/A _421_/X VGND
+ VGND VPWR VPWR ringosc.dstage\[9\].id.delayen1/Z sky130_fd_sc_hd__einvn_4
Xringosc.dstage\[10\].id.delayenb1 ringosc.dstage\[10\].id.delayenb1/A _422_/X VGND
+ VGND VPWR VPWR ringosc.dstage\[10\].id.delayen1/Z sky130_fd_sc_hd__einvn_4
XFILLER_6_46 VGND VGND VPWR VPWR sky130_fd_sc_hd__fill_2
XFILLER_15_55 VGND VGND VPWR VPWR sky130_fd_sc_hd__fill_1
XFILLER_15_44 VGND VGND VPWR VPWR sky130_fd_sc_hd__decap_4
XFILLER_16_187 VGND VGND VPWR VPWR sky130_fd_sc_hd__decap_3
XFILLER_22_113 VGND VGND VPWR VPWR sky130_fd_sc_hd__fill_1
XTAP_113 VGND VPWR sky130_fd_sc_hd__tapvpwrvgnd_1
XTAP_102 VGND VPWR sky130_fd_sc_hd__tapvpwrvgnd_1
X_361_ _367_/A dco VGND VGND VPWR VPWR _398_/B sky130_fd_sc_hd__nor2_2
X_292_ _397_/A _325_/A _278_/Y _291_/X VGND VGND VPWR VPWR _293_/A sky130_fd_sc_hd__o31a_2
XFILLER_13_113 VGND VGND VPWR VPWR sky130_fd_sc_hd__fill_1
XFILLER_13_102 VGND VGND VPWR VPWR sky130_fd_sc_hd__decap_3
X_430_ _437_/A _433_/B VGND VGND VPWR VPWR _430_/Y sky130_fd_sc_hd__nor2_2
XFILLER_3_14 VGND VGND VPWR VPWR sky130_fd_sc_hd__fill_2
XFILLER_3_47 VGND VGND VPWR VPWR sky130_fd_sc_hd__decap_3
X_413_ _301_/Y _367_/Y _386_/Y _412_/X VGND VGND VPWR VPWR _413_/X sky130_fd_sc_hd__o211a_2
X_275_ _466_/Q VGND VGND VPWR VPWR _420_/B sky130_fd_sc_hd__inv_2
X_344_ _344_/A VGND VGND VPWR VPWR _457_/D sky130_fd_sc_hd__buf_2
XFILLER_5_120 VGND VGND VPWR VPWR sky130_fd_sc_hd__fill_2
XANTENNA__410__A2 ext_trim[18] VGND VGND VPWR VPWR sky130_fd_sc_hd__diode_2
Xringosc.dstage\[4\].id.delayen0 ringosc.dstage\[4\].id.delayen0/A _369_/X VGND VGND
+ VPWR VPWR ringosc.dstage\[4\].id.delayen0/Z sky130_fd_sc_hd__einvp_2
XFILLER_2_112 VGND VGND VPWR VPWR sky130_fd_sc_hd__decap_6
XFILLER_3_3 VGND VGND VPWR VPWR sky130_fd_sc_hd__decap_4
X_327_ _327_/A VGND VGND VPWR VPWR _464_/D sky130_fd_sc_hd__buf_2
XFILLER_9_57 VGND VGND VPWR VPWR sky130_fd_sc_hd__fill_1
X_258_ div[1] _258_/B VGND VGND VPWR VPWR _258_/X sky130_fd_sc_hd__and2_2
XFILLER_18_22 VGND VGND VPWR VPWR sky130_fd_sc_hd__fill_2
XFILLER_20_23 VGND VGND VPWR VPWR sky130_fd_sc_hd__fill_2
XFILLER_16_166 VGND VGND VPWR VPWR sky130_fd_sc_hd__decap_4
XFILLER_16_122 VGND VGND VPWR VPWR sky130_fd_sc_hd__fill_2
XFILLER_16_100 VGND VGND VPWR VPWR sky130_fd_sc_hd__fill_2
XTAP_114 VGND VPWR sky130_fd_sc_hd__tapvpwrvgnd_1
Xringosc.dstage\[9\].id.delaybuf0 ringosc.dstage\[8\].id.delayen0/Z VGND VGND VPWR
+ VPWR ringosc.dstage\[9\].id.delayenb1/A sky130_fd_sc_hd__clkbuf_2
XTAP_103 VGND VPWR sky130_fd_sc_hd__tapvpwrvgnd_1
Xringosc.dstage\[5\].id.delayenb0 ringosc.dstage\[5\].id.delayenb1/A _373_/X VGND
+ VGND VPWR VPWR ringosc.ibufp10/A sky130_fd_sc_hd__einvn_8
Xringosc.dstage\[10\].id.delaybuf0 ringosc.dstage\[9\].id.delayen0/Z VGND VGND VPWR
+ VPWR ringosc.dstage\[10\].id.delayenb1/A sky130_fd_sc_hd__clkbuf_2
XFILLER_22_169 VGND VGND VPWR VPWR sky130_fd_sc_hd__fill_1
X_360_ _352_/X ext_trim[1] _403_/A VGND VGND VPWR VPWR _360_/X sky130_fd_sc_hd__a21o_2
XFILLER_13_169 VGND VGND VPWR VPWR sky130_fd_sc_hd__fill_1
X_291_ _285_/X _291_/B _291_/C VGND VGND VPWR VPWR _291_/X sky130_fd_sc_hd__and3b_2
XFILLER_9_107 VGND VGND VPWR VPWR sky130_fd_sc_hd__decap_4
XANTENNA__244__A div[2] VGND VGND VPWR VPWR sky130_fd_sc_hd__diode_2
XFILLER_3_37 VGND VGND VPWR VPWR sky130_fd_sc_hd__fill_2
XFILLER_12_68 VGND VGND VPWR VPWR sky130_fd_sc_hd__fill_2
XFILLER_12_35 VGND VGND VPWR VPWR sky130_fd_sc_hd__fill_2
XFILLER_12_24 VGND VGND VPWR VPWR sky130_fd_sc_hd__decap_4
X_412_ _420_/B _283_/B _381_/A _376_/Y VGND VGND VPWR VPWR _412_/X sky130_fd_sc_hd__o22a_2
X_274_ _464_/Q _463_/Q VGND VGND VPWR VPWR _324_/B sky130_fd_sc_hd__and2_2
X_343_ _456_/Q _457_/Q _345_/S VGND VGND VPWR VPWR _344_/A sky130_fd_sc_hd__mux2_2
Xringosc.dstage\[4\].id.delayen1 ringosc.dstage\[4\].id.delayen1/A _409_/X VGND VGND
+ VPWR VPWR ringosc.dstage\[4\].id.delayen1/Z sky130_fd_sc_hd__einvp_2
XFILLER_0_49 VGND VGND VPWR VPWR sky130_fd_sc_hd__fill_2
XFILLER_2_146 VGND VGND VPWR VPWR sky130_fd_sc_hd__fill_2
X_326_ _464_/Q _325_/X _328_/B VGND VGND VPWR VPWR _327_/A sky130_fd_sc_hd__mux2_2
X_257_ div[0] _257_/B _257_/C VGND VGND VPWR VPWR _288_/C sky130_fd_sc_hd__nand3b_2
X_309_ _309_/A _309_/B VGND VGND VPWR VPWR _309_/X sky130_fd_sc_hd__and2_2
XANTENNA__252__A div[1] VGND VGND VPWR VPWR sky130_fd_sc_hd__diode_2
XANTENNA__427__A _428_/A VGND VGND VPWR VPWR sky130_fd_sc_hd__diode_2
XFILLER_15_57 VGND VGND VPWR VPWR sky130_fd_sc_hd__fill_1
XFILLER_15_13 VGND VGND VPWR VPWR sky130_fd_sc_hd__decap_4
XTAP_115 VGND VPWR sky130_fd_sc_hd__tapvpwrvgnd_1
Xringosc.dstage\[5\].id.delayenb1 ringosc.dstage\[5\].id.delayenb1/A _410_/X VGND
+ VGND VPWR VPWR ringosc.dstage\[5\].id.delayen1/Z sky130_fd_sc_hd__einvn_4
Xringosc.dstage\[9\].id.delaybuf1 ringosc.dstage\[9\].id.delayenb1/A VGND VGND VPWR
+ VPWR ringosc.dstage\[9\].id.delayen1/A sky130_fd_sc_hd__clkbuf_1
Xringosc.dstage\[10\].id.delaybuf1 ringosc.dstage\[10\].id.delayenb1/A VGND VGND VPWR
+ VPWR ringosc.dstage\[10\].id.delayen1/A sky130_fd_sc_hd__clkbuf_1
XTAP_104 VGND VPWR sky130_fd_sc_hd__tapvpwrvgnd_1
XFILLER_11_3 VGND VGND VPWR VPWR sky130_fd_sc_hd__fill_1
XANTENNA__350__A ext_trim[0] VGND VGND VPWR VPWR sky130_fd_sc_hd__diode_2
X_290_ _266_/X _290_/B _290_/C _290_/D VGND VGND VPWR VPWR _291_/C sky130_fd_sc_hd__nand4b_2
XANTENNA__422__A1 _428_/A VGND VGND VPWR VPWR sky130_fd_sc_hd__diode_2
XFILLER_8_185 VGND VGND VPWR VPWR sky130_fd_sc_hd__fill_2
XFILLER_8_130 VGND VGND VPWR VPWR sky130_fd_sc_hd__fill_1
XFILLER_8_141 VGND VGND VPWR VPWR sky130_fd_sc_hd__fill_1
XANTENNA__404__A1 _428_/A VGND VGND VPWR VPWR sky130_fd_sc_hd__diode_2
X_411_ _379_/X ext_trim[19] _403_/A _403_/B VGND VGND VPWR VPWR _411_/X sky130_fd_sc_hd__a22o_2
X_273_ _467_/Q VGND VGND VPWR VPWR _376_/A sky130_fd_sc_hd__buf_2
X_342_ _342_/A _347_/B _342_/C VGND VGND VPWR VPWR _458_/D sky130_fd_sc_hd__nand3_2
XFILLER_5_144 VGND VGND VPWR VPWR sky130_fd_sc_hd__fill_2
XFILLER_5_188 VGND VGND VPWR VPWR sky130_fd_sc_hd__fill_2
XFILLER_2_103 VGND VGND VPWR VPWR sky130_fd_sc_hd__fill_2
XFILLER_13_90 VGND VGND VPWR VPWR sky130_fd_sc_hd__fill_2
X_325_ _325_/A _325_/B VGND VGND VPWR VPWR _325_/X sky130_fd_sc_hd__xor2_2
XFILLER_0_39 VGND VGND VPWR VPWR sky130_fd_sc_hd__decap_4
X_256_ _256_/A VGND VGND VPWR VPWR _257_/C sky130_fd_sc_hd__inv_2
X_308_ _420_/A _325_/A VGND VGND VPWR VPWR _309_/B sky130_fd_sc_hd__xnor2_2
X_239_ _262_/A _239_/B VGND VGND VPWR VPWR _240_/C sky130_fd_sc_hd__nand2b_2
XFILLER_20_47 VGND VGND VPWR VPWR sky130_fd_sc_hd__decap_4
XFILLER_20_14 VGND VGND VPWR VPWR sky130_fd_sc_hd__decap_4
XFILLER_6_27 VGND VGND VPWR VPWR sky130_fd_sc_hd__fill_1
XFILLER_15_36 VGND VGND VPWR VPWR sky130_fd_sc_hd__decap_4
XANTENNA__348__A dco VGND VGND VPWR VPWR sky130_fd_sc_hd__diode_2
XTAP_116 VGND VPWR sky130_fd_sc_hd__tapvpwrvgnd_1
XTAP_105 VGND VPWR sky130_fd_sc_hd__tapvpwrvgnd_1
XFILLER_16_135 VGND VGND VPWR VPWR sky130_fd_sc_hd__fill_2
XANTENNA__258__A div[1] VGND VGND VPWR VPWR sky130_fd_sc_hd__diode_2
XFILLER_22_149 VGND VGND VPWR VPWR sky130_fd_sc_hd__fill_2
XFILLER_22_127 VGND VGND VPWR VPWR sky130_fd_sc_hd__decap_4
XFILLER_22_105 VGND VGND VPWR VPWR sky130_fd_sc_hd__fill_2
XFILLER_13_138 VGND VGND VPWR VPWR sky130_fd_sc_hd__fill_2
XANTENNA__422__A2 ext_trim[23] VGND VGND VPWR VPWR sky130_fd_sc_hd__diode_2
Xringosc.dstage\[5\].id.delaybuf0 ringosc.dstage\[4\].id.delayen0/Z VGND VGND VPWR
+ VPWR ringosc.dstage\[5\].id.delayenb1/A sky130_fd_sc_hd__clkbuf_2
X_410_ _428_/A ext_trim[18] _398_/X VGND VGND VPWR VPWR _410_/X sky130_fd_sc_hd__a21o_2
Xringosc.dstage\[1\].id.delayenb0 ringosc.dstage\[1\].id.delayenb1/A _360_/X VGND
+ VGND VPWR VPWR ringosc.dstage\[1\].id.delayen0/Z sky130_fd_sc_hd__einvn_8
XANTENNA__404__A2 ext_trim[16] VGND VGND VPWR VPWR sky130_fd_sc_hd__diode_2
X_272_ _302_/B VGND VGND VPWR VPWR _325_/A sky130_fd_sc_hd__buf_2
X_341_ _342_/C _340_/Y _347_/B VGND VGND VPWR VPWR _459_/D sky130_fd_sc_hd__a21boi_2
Xringosc.dstage\[8\].id.delayint0 ringosc.dstage\[8\].id.delayen1/Z VGND VGND VPWR
+ VPWR ringosc.dstage\[8\].id.delayen0/A sky130_fd_sc_hd__clkinv_1
XFILLER_5_134 VGND VGND VPWR VPWR sky130_fd_sc_hd__decap_4
XFILLER_5_167 VGND VGND VPWR VPWR sky130_fd_sc_hd__fill_1
XFILLER_4_93 VGND VGND VPWR VPWR sky130_fd_sc_hd__fill_2
XANTENNA__266__A div[4] VGND VGND VPWR VPWR sky130_fd_sc_hd__diode_2
XFILLER_9_49 VGND VGND VPWR VPWR sky130_fd_sc_hd__fill_2
X_255_ _342_/A _473_/Q VGND VGND VPWR VPWR _256_/A sky130_fd_sc_hd__nor2_2
XFILLER_0_29 VGND VGND VPWR VPWR sky130_fd_sc_hd__fill_1
X_324_ _324_/A _324_/B VGND VGND VPWR VPWR _325_/B sky130_fd_sc_hd__nor2_2
XFILLER_1_3 VGND VGND VPWR VPWR sky130_fd_sc_hd__decap_3
X_307_ _313_/A _316_/A _316_/B _398_/A _325_/A VGND VGND VPWR VPWR _309_/A sky130_fd_sc_hd__a32o_2
XFILLER_1_61 VGND VGND VPWR VPWR sky130_fd_sc_hd__fill_2
X_238_ _461_/Q _476_/Q VGND VGND VPWR VPWR _239_/B sky130_fd_sc_hd__nand2_2
XFILLER_20_37 VGND VGND VPWR VPWR sky130_fd_sc_hd__decap_3
XFILLER_19_122 VGND VGND VPWR VPWR sky130_fd_sc_hd__fill_2
XFILLER_19_100 VGND VGND VPWR VPWR sky130_fd_sc_hd__fill_2
XFILLER_6_17 VGND VGND VPWR VPWR sky130_fd_sc_hd__fill_2
XFILLER_6_39 VGND VGND VPWR VPWR sky130_fd_sc_hd__fill_2
XFILLER_16_114 VGND VGND VPWR VPWR sky130_fd_sc_hd__fill_2
XFILLER_22_139 VGND VGND VPWR VPWR sky130_fd_sc_hd__fill_1
XFILLER_22_117 VGND VGND VPWR VPWR sky130_fd_sc_hd__decap_3
XTAP_117 VGND VPWR sky130_fd_sc_hd__tapvpwrvgnd_1
XTAP_106 VGND VPWR sky130_fd_sc_hd__tapvpwrvgnd_1
XPHY_0 VGND VGND VPWR VPWR sky130_fd_sc_hd__decap_3
XFILLER_13_128 VGND VGND VPWR VPWR sky130_fd_sc_hd__fill_2
XFILLER_3_18 VGND VGND VPWR VPWR sky130_fd_sc_hd__fill_2
XFILLER_16_91 VGND VGND VPWR VPWR sky130_fd_sc_hd__fill_2
Xringosc.dstage\[5\].id.delaybuf1 ringosc.dstage\[5\].id.delayenb1/A VGND VGND VPWR
+ VPWR ringosc.dstage\[5\].id.delayen1/A sky130_fd_sc_hd__clkbuf_1
XANTENNA__361__B dco VGND VGND VPWR VPWR sky130_fd_sc_hd__diode_2
Xringosc.dstage\[1\].id.delayenb1 ringosc.dstage\[1\].id.delayenb1/A _396_/X VGND
+ VGND VPWR VPWR ringosc.dstage\[1\].id.delayen1/Z sky130_fd_sc_hd__einvn_4
XFILLER_12_49 VGND VGND VPWR VPWR sky130_fd_sc_hd__fill_2
X_271_ _260_/X _266_/X _267_/X _290_/C VGND VGND VPWR VPWR _302_/B sky130_fd_sc_hd__o31a_2
X_340_ _459_/Q _342_/A VGND VGND VPWR VPWR _340_/Y sky130_fd_sc_hd__xnor2_2
XFILLER_5_113 VGND VGND VPWR VPWR sky130_fd_sc_hd__fill_2
Xringosc.dstage\[1\].id.delayen0 ringosc.dstage\[1\].id.delayen0/A _360_/X VGND VGND
+ VPWR VPWR ringosc.dstage\[1\].id.delayen0/Z sky130_fd_sc_hd__einvp_2
XFILLER_4_83 VGND VGND VPWR VPWR sky130_fd_sc_hd__fill_1
X_469_ _477_/CLK _469_/D _445_/Y VGND VGND VPWR VPWR _469_/Q sky130_fd_sc_hd__dfrtp_2
XANTENNA__389__A2 ext_trim[12] VGND VGND VPWR VPWR sky130_fd_sc_hd__diode_2
XFILLER_13_81 VGND VGND VPWR VPWR sky130_fd_sc_hd__decap_4
XFILLER_13_70 VGND VGND VPWR VPWR sky130_fd_sc_hd__fill_2
X_323_ _328_/B _322_/Y _465_/Q _291_/X VGND VGND VPWR VPWR _465_/D sky130_fd_sc_hd__o2bb2a_2
XFILLER_9_39 VGND VGND VPWR VPWR sky130_fd_sc_hd__fill_2
X_254_ _342_/A _473_/Q VGND VGND VPWR VPWR _257_/B sky130_fd_sc_hd__nand2_2
XFILLER_18_48 VGND VGND VPWR VPWR sky130_fd_sc_hd__fill_2
XFILLER_18_26 VGND VGND VPWR VPWR sky130_fd_sc_hd__fill_2
X_306_ _401_/B VGND VGND VPWR VPWR _398_/A sky130_fd_sc_hd__inv_2
X_237_ _461_/Q _476_/Q VGND VGND VPWR VPWR _262_/A sky130_fd_sc_hd__nor2_2
XFILLER_20_27 VGND VGND VPWR VPWR sky130_fd_sc_hd__fill_1
XANTENNA__289__A1 div[3] VGND VGND VPWR VPWR sky130_fd_sc_hd__diode_2
XFILLER_19_189 VGND VGND VPWR VPWR sky130_fd_sc_hd__fill_1
XFILLER_19_167 VGND VGND VPWR VPWR sky130_fd_sc_hd__fill_1
XFILLER_19_145 VGND VGND VPWR VPWR sky130_fd_sc_hd__decap_4
XFILLER_13_9 VGND VGND VPWR VPWR sky130_fd_sc_hd__decap_6
XFILLER_6_29 VGND VGND VPWR VPWR sky130_fd_sc_hd__fill_1
XTAP_118 VGND VPWR sky130_fd_sc_hd__tapvpwrvgnd_1
XTAP_107 VGND VPWR sky130_fd_sc_hd__tapvpwrvgnd_1
XFILLER_11_6 VGND VGND VPWR VPWR sky130_fd_sc_hd__fill_2
XPHY_1 VGND VGND VPWR VPWR sky130_fd_sc_hd__decap_3
XFILLER_21_184 VGND VGND VPWR VPWR sky130_fd_sc_hd__fill_2
XFILLER_13_118 VGND VGND VPWR VPWR sky130_fd_sc_hd__fill_2
XFILLER_13_107 VGND VGND VPWR VPWR sky130_fd_sc_hd__fill_2
XFILLER_16_81 VGND VGND VPWR VPWR sky130_fd_sc_hd__decap_3
X_270_ div[4] _266_/B _268_/Y _269_/Y VGND VGND VPWR VPWR _290_/C sky130_fd_sc_hd__o211a_2
XFILLER_5_169 VGND VGND VPWR VPWR sky130_fd_sc_hd__fill_1
X_399_ _379_/X ext_trim[15] _397_/Y _398_/X VGND VGND VPWR VPWR _399_/X sky130_fd_sc_hd__a22o_2
Xringosc.dstage\[1\].id.delayen1 ringosc.dstage\[1\].id.delayen1/A _396_/X VGND VGND
+ VPWR VPWR ringosc.dstage\[1\].id.delayen1/Z sky130_fd_sc_hd__einvp_2
X_468_ _477_/CLK _468_/D _444_/Y VGND VGND VPWR VPWR _468_/Q sky130_fd_sc_hd__dfrtp_2
Xringosc.dstage\[1\].id.delaybuf0 ringosc.dstage\[0\].id.delayen0/Z VGND VGND VPWR
+ VPWR ringosc.dstage\[1\].id.delayenb1/A sky130_fd_sc_hd__clkbuf_2
X_322_ _322_/A _322_/B VGND VGND VPWR VPWR _322_/Y sky130_fd_sc_hd__xnor2_2
XFILLER_2_139 VGND VGND VPWR VPWR sky130_fd_sc_hd__fill_1
Xringosc.dstage\[4\].id.delayint0 ringosc.dstage\[4\].id.delayen1/Z VGND VGND VPWR
+ VPWR ringosc.dstage\[4\].id.delayen0/A sky130_fd_sc_hd__clkinv_1
X_253_ _258_/B _253_/B VGND VGND VPWR VPWR _288_/B sky130_fd_sc_hd__nand2b_2
X_305_ _301_/Y _322_/A _322_/B _406_/C _325_/A VGND VGND VPWR VPWR _316_/B sky130_fd_sc_hd__a32o_2
X_236_ _251_/A _251_/B _247_/B _235_/X VGND VGND VPWR VPWR _240_/B sky130_fd_sc_hd__a211o_2
XFILLER_19_113 VGND VGND VPWR VPWR sky130_fd_sc_hd__fill_1
XFILLER_10_83 VGND VGND VPWR VPWR sky130_fd_sc_hd__fill_1
X_219_ _461_/Q _476_/Q _345_/S VGND VGND VPWR VPWR _220_/A sky130_fd_sc_hd__mux2_2
Xringosc.dstage\[9\].id.delayen0 ringosc.dstage\[9\].id.delayen0/A _383_/X VGND VGND
+ VPWR VPWR ringosc.dstage\[9\].id.delayen0/Z sky130_fd_sc_hd__einvp_2
XFILLER_16_127 VGND VGND VPWR VPWR sky130_fd_sc_hd__decap_3
XFILLER_15_17 VGND VGND VPWR VPWR sky130_fd_sc_hd__fill_1
XTAP_119 VGND VPWR sky130_fd_sc_hd__tapvpwrvgnd_1
XTAP_108 VGND VPWR sky130_fd_sc_hd__tapvpwrvgnd_1
XPHY_2 VGND VGND VPWR VPWR sky130_fd_sc_hd__decap_3
XFILLER_21_141 VGND VGND VPWR VPWR sky130_fd_sc_hd__fill_2
XFILLER_7_51 VGND VGND VPWR VPWR sky130_fd_sc_hd__fill_2
XFILLER_7_62 VGND VGND VPWR VPWR sky130_fd_sc_hd__fill_2
XFILLER_12_141 VGND VGND VPWR VPWR sky130_fd_sc_hd__fill_1
XFILLER_8_189 VGND VGND VPWR VPWR sky130_fd_sc_hd__fill_1
XFILLER_12_29 VGND VGND VPWR VPWR sky130_fd_sc_hd__decap_4
X_398_ _398_/A _398_/B VGND VGND VPWR VPWR _398_/X sky130_fd_sc_hd__and2_2
XFILLER_4_74 VGND VGND VPWR VPWR sky130_fd_sc_hd__decap_4
XFILLER_4_85 VGND VGND VPWR VPWR sky130_fd_sc_hd__fill_1
X_467_ _477_/CLK _467_/D _442_/Y VGND VGND VPWR VPWR _467_/Q sky130_fd_sc_hd__dfrtp_2
Xringosc.dstage\[1\].id.delaybuf1 ringosc.dstage\[1\].id.delayenb1/A VGND VGND VPWR
+ VPWR ringosc.dstage\[1\].id.delayen1/A sky130_fd_sc_hd__clkbuf_1
X_321_ _420_/B _321_/B VGND VGND VPWR VPWR _466_/D sky130_fd_sc_hd__xnor2_2
X_252_ div[1] VGND VGND VPWR VPWR _253_/B sky130_fd_sc_hd__inv_2
X_304_ _302_/B _303_/Y _324_/B VGND VGND VPWR VPWR _322_/B sky130_fd_sc_hd__a21o_2
X_235_ _459_/Q _474_/Q VGND VGND VPWR VPWR _235_/X sky130_fd_sc_hd__and2_2
XFILLER_20_29 VGND VGND VPWR VPWR sky130_fd_sc_hd__fill_1
XFILLER_20_18 VGND VGND VPWR VPWR sky130_fd_sc_hd__fill_1
XFILLER_1_20 VGND VGND VPWR VPWR sky130_fd_sc_hd__decap_4
XFILLER_19_169 VGND VGND VPWR VPWR sky130_fd_sc_hd__fill_2
XFILLER_19_158 VGND VGND VPWR VPWR sky130_fd_sc_hd__fill_2
XFILLER_19_136 VGND VGND VPWR VPWR sky130_fd_sc_hd__fill_2
XFILLER_19_82 VGND VGND VPWR VPWR sky130_fd_sc_hd__decap_4
XFILLER_19_60 VGND VGND VPWR VPWR sky130_fd_sc_hd__fill_2
X_218_ _218_/A VGND VGND VPWR VPWR _477_/D sky130_fd_sc_hd__buf_2
Xringosc.dstage\[9\].id.delayen1 ringosc.dstage\[9\].id.delayen1/A _421_/X VGND VGND
+ VPWR VPWR ringosc.dstage\[9\].id.delayen1/Z sky130_fd_sc_hd__einvp_2
XTAP_109 VGND VPWR sky130_fd_sc_hd__tapvpwrvgnd_1
XFILLER_16_139 VGND VGND VPWR VPWR sky130_fd_sc_hd__fill_1
XFILLER_22_109 VGND VGND VPWR VPWR sky130_fd_sc_hd__decap_3
XFILLER_15_161 VGND VGND VPWR VPWR sky130_fd_sc_hd__decap_3
XPHY_3 VGND VGND VPWR VPWR sky130_fd_sc_hd__decap_3
XFILLER_7_85 VGND VGND VPWR VPWR sky130_fd_sc_hd__fill_2
XFILLER_16_72 VGND VGND VPWR VPWR sky130_fd_sc_hd__fill_1
XFILLER_8_135 VGND VGND VPWR VPWR sky130_fd_sc_hd__decap_4
XANTENNA__270__A1 div[4] VGND VGND VPWR VPWR sky130_fd_sc_hd__diode_2
XFILLER_5_127 VGND VGND VPWR VPWR sky130_fd_sc_hd__fill_2
XFILLER_5_138 VGND VGND VPWR VPWR sky130_fd_sc_hd__fill_1
X_397_ _397_/A _397_/B VGND VGND VPWR VPWR _397_/Y sky130_fd_sc_hd__nand2_2
XFILLER_4_20 VGND VGND VPWR VPWR sky130_fd_sc_hd__fill_2
X_466_ _477_/CLK _466_/D _441_/Y VGND VGND VPWR VPWR _466_/Q sky130_fd_sc_hd__dfrtp_2
X_320_ _302_/A _322_/B _319_/X _293_/A VGND VGND VPWR VPWR _321_/B sky130_fd_sc_hd__o211a_2
XFILLER_13_62 VGND VGND VPWR VPWR sky130_fd_sc_hd__decap_3
X_251_ _251_/A _251_/B VGND VGND VPWR VPWR _258_/B sky130_fd_sc_hd__xnor2_2
XFILLER_18_29 VGND VGND VPWR VPWR sky130_fd_sc_hd__fill_1
X_449_ _454_/A _451_/B VGND VGND VPWR VPWR _449_/Y sky130_fd_sc_hd__nor2_2
X_303_ _324_/A VGND VGND VPWR VPWR _303_/Y sky130_fd_sc_hd__inv_2
XFILLER_1_76 VGND VGND VPWR VPWR sky130_fd_sc_hd__fill_2
X_234_ _460_/Q _475_/Q VGND VGND VPWR VPWR _247_/B sky130_fd_sc_hd__and2_2
Xringosc.dstage\[0\].id.delayint0 ringosc.dstage\[0\].id.delayen1/Z VGND VGND VPWR
+ VPWR ringosc.dstage\[0\].id.delayen0/A sky130_fd_sc_hd__clkinv_1
Xringosc.iss.reseten0 ringosc.iss.const1/HI _433_/B VGND VGND VPWR VPWR ringosc.ibufp00/A
+ sky130_fd_sc_hd__einvp_1
XFILLER_10_85 VGND VGND VPWR VPWR sky130_fd_sc_hd__fill_1
XANTENNA__470__D osc VGND VGND VPWR VPWR sky130_fd_sc_hd__diode_2
X_217_ _462_/Q _477_/Q _347_/B VGND VGND VPWR VPWR _218_/A sky130_fd_sc_hd__mux2_2
XFILLER_18_181 VGND VGND VPWR VPWR sky130_fd_sc_hd__fill_2
XFILLER_21_51 VGND VGND VPWR VPWR sky130_fd_sc_hd__fill_2
XFILLER_16_107 VGND VGND VPWR VPWR sky130_fd_sc_hd__fill_2
XANTENNA__419__A1 _428_/A VGND VGND VPWR VPWR sky130_fd_sc_hd__diode_2
XFILLER_15_151 VGND VGND VPWR VPWR sky130_fd_sc_hd__fill_2