* NGSPICE file created from digital_pll.ext - technology: sky130A

* Black-box entry subcircuit for sky130_fd_sc_hd__or3_2 abstract view
.subckt sky130_fd_sc_hd__or3_2 A B C VGND VNB VPB VPWR X
.ends

* Black-box entry subcircuit for sky130_fd_sc_hd__dfrtp_2 abstract view
.subckt sky130_fd_sc_hd__dfrtp_2 CLK D RESET_B VGND VNB VPB VPWR Q
.ends

* Black-box entry subcircuit for sky130_fd_sc_hd__clkinv_1 abstract view
.subckt sky130_fd_sc_hd__clkinv_1 A VGND VNB VPB VPWR Y
.ends

* Black-box entry subcircuit for sky130_fd_sc_hd__mux2_1 abstract view
.subckt sky130_fd_sc_hd__mux2_1 A0 A1 S VGND VNB VPB VPWR X
.ends

* Black-box entry subcircuit for sky130_fd_sc_hd__a311o_2 abstract view
.subckt sky130_fd_sc_hd__a311o_2 A1 A2 A3 B1 C1 VGND VNB VPB VPWR X
.ends

* Black-box entry subcircuit for sky130_fd_sc_hd__a2bb2o_2 abstract view
.subckt sky130_fd_sc_hd__a2bb2o_2 A1_N A2_N B1 B2 VGND VNB VPB VPWR X
.ends

* Black-box entry subcircuit for sky130_fd_sc_hd__einvp_2 abstract view
.subckt sky130_fd_sc_hd__einvp_2 A TE VGND VNB VPB VPWR Z
.ends

* Black-box entry subcircuit for sky130_fd_sc_hd__fill_1 abstract view
.subckt sky130_fd_sc_hd__fill_1 VGND VNB VPB VPWR
.ends

* Black-box entry subcircuit for sky130_fd_sc_hd__einvn_8 abstract view
.subckt sky130_fd_sc_hd__einvn_8 A TE_B VGND VNB VPB VPWR Z
.ends

* Black-box entry subcircuit for sky130_fd_sc_hd__fill_2 abstract view
.subckt sky130_fd_sc_hd__fill_2 VGND VNB VPB VPWR
.ends

* Black-box entry subcircuit for sky130_fd_sc_hd__o311a_2 abstract view
.subckt sky130_fd_sc_hd__o311a_2 A1 A2 A3 B1 C1 VGND VNB VPB VPWR X
.ends

* Black-box entry subcircuit for sky130_fd_sc_hd__decap_6 abstract view
.subckt sky130_fd_sc_hd__decap_6 VGND VNB VPB VPWR
.ends

* Black-box entry subcircuit for sky130_fd_sc_hd__decap_3 abstract view
.subckt sky130_fd_sc_hd__decap_3 VGND VNB VPB VPWR
.ends

* Black-box entry subcircuit for sky130_fd_sc_hd__or2_2 abstract view
.subckt sky130_fd_sc_hd__or2_2 A B VGND VNB VPB VPWR X
.ends

* Black-box entry subcircuit for sky130_fd_sc_hd__buf_2 abstract view
.subckt sky130_fd_sc_hd__buf_2 A VGND VNB VPB VPWR X
.ends

* Black-box entry subcircuit for sky130_fd_sc_hd__einvn_4 abstract view
.subckt sky130_fd_sc_hd__einvn_4 A TE_B VGND VNB VPB VPWR Z
.ends

* Black-box entry subcircuit for sky130_fd_sc_hd__nand2_2 abstract view
.subckt sky130_fd_sc_hd__nand2_2 A B VGND VNB VPB VPWR Y
.ends

* Black-box entry subcircuit for sky130_fd_sc_hd__o221a_2 abstract view
.subckt sky130_fd_sc_hd__o221a_2 A1 A2 B1 B2 C1 VGND VNB VPB VPWR X
.ends

* Black-box entry subcircuit for sky130_fd_sc_hd__buf_1 abstract view
.subckt sky130_fd_sc_hd__buf_1 A VGND VNB VPB VPWR X
.ends

* Black-box entry subcircuit for sky130_fd_sc_hd__decap_4 abstract view
.subckt sky130_fd_sc_hd__decap_4 VGND VNB VPB VPWR
.ends

* Black-box entry subcircuit for sky130_fd_sc_hd__clkbuf_2 abstract view
.subckt sky130_fd_sc_hd__clkbuf_2 A VGND VNB VPB VPWR X
.ends

* Black-box entry subcircuit for sky130_fd_sc_hd__a31o_2 abstract view
.subckt sky130_fd_sc_hd__a31o_2 A1 A2 A3 B1 VGND VNB VPB VPWR X
.ends

* Black-box entry subcircuit for sky130_fd_sc_hd__a22o_2 abstract view
.subckt sky130_fd_sc_hd__a22o_2 A1 A2 B1 B2 VGND VNB VPB VPWR X
.ends

* Black-box entry subcircuit for sky130_fd_sc_hd__a32o_2 abstract view
.subckt sky130_fd_sc_hd__a32o_2 A1 A2 A3 B1 B2 VGND VNB VPB VPWR X
.ends

* Black-box entry subcircuit for sky130_fd_sc_hd__decap_8 abstract view
.subckt sky130_fd_sc_hd__decap_8 VGND VNB VPB VPWR
.ends

* Black-box entry subcircuit for sky130_fd_sc_hd__clkbuf_1 abstract view
.subckt sky130_fd_sc_hd__clkbuf_1 A VGND VNB VPB VPWR X
.ends

* Black-box entry subcircuit for sky130_fd_sc_hd__o21ai_2 abstract view
.subckt sky130_fd_sc_hd__o21ai_2 A1 A2 B1 VGND VNB VPB VPWR Y
.ends

* Black-box entry subcircuit for sky130_fd_sc_hd__nor2_2 abstract view
.subckt sky130_fd_sc_hd__nor2_2 A B VGND VNB VPB VPWR Y
.ends

* Black-box entry subcircuit for sky130_fd_sc_hd__and4_2 abstract view
.subckt sky130_fd_sc_hd__and4_2 A B C D VGND VNB VPB VPWR X
.ends

* Black-box entry subcircuit for sky130_fd_sc_hd__inv_2 abstract view
.subckt sky130_fd_sc_hd__inv_2 A VGND VNB VPB VPWR Y
.ends

* Black-box entry subcircuit for sky130_fd_sc_hd__o22a_2 abstract view
.subckt sky130_fd_sc_hd__o22a_2 A1 A2 B1 B2 VGND VNB VPB VPWR X
.ends

* Black-box entry subcircuit for sky130_fd_sc_hd__a221o_2 abstract view
.subckt sky130_fd_sc_hd__a221o_2 A1 A2 B1 B2 C1 VGND VNB VPB VPWR X
.ends

* Black-box entry subcircuit for sky130_fd_sc_hd__a21oi_2 abstract view
.subckt sky130_fd_sc_hd__a21oi_2 A1 A2 B1 VGND VNB VPB VPWR Y
.ends

* Black-box entry subcircuit for sky130_fd_sc_hd__o31a_2 abstract view
.subckt sky130_fd_sc_hd__o31a_2 A1 A2 A3 B1 VGND VNB VPB VPWR X
.ends

* Black-box entry subcircuit for sky130_fd_sc_hd__o221ai_2 abstract view
.subckt sky130_fd_sc_hd__o221ai_2 A1 A2 B1 B2 C1 VGND VNB VPB VPWR Y
.ends

* Black-box entry subcircuit for sky130_fd_sc_hd__einvp_1 abstract view
.subckt sky130_fd_sc_hd__einvp_1 A TE VGND VNB VPB VPWR Z
.ends

* Black-box entry subcircuit for sky130_fd_sc_hd__and3_2 abstract view
.subckt sky130_fd_sc_hd__and3_2 A B C VGND VNB VPB VPWR X
.ends

* Black-box entry subcircuit for sky130_fd_sc_hd__a21bo_2 abstract view
.subckt sky130_fd_sc_hd__a21bo_2 A1 A2 B1_N VGND VNB VPB VPWR X
.ends

* Black-box entry subcircuit for sky130_fd_sc_hd__o41a_2 abstract view
.subckt sky130_fd_sc_hd__o41a_2 A1 A2 A3 A4 B1 VGND VNB VPB VPWR X
.ends

* Black-box entry subcircuit for sky130_fd_sc_hd__tapvpwrvgnd_1 abstract view
.subckt sky130_fd_sc_hd__tapvpwrvgnd_1 VGND VPWR
.ends

* Black-box entry subcircuit for sky130_fd_sc_hd__o2bb2a_2 abstract view
.subckt sky130_fd_sc_hd__o2bb2a_2 A1_N A2_N B1 B2 VGND VNB VPB VPWR X
.ends

* Black-box entry subcircuit for sky130_fd_sc_hd__decap_12 abstract view
.subckt sky130_fd_sc_hd__decap_12 VGND VNB VPB VPWR
.ends

* Black-box entry subcircuit for sky130_fd_sc_hd__o21a_2 abstract view
.subckt sky130_fd_sc_hd__o21a_2 A1 A2 B1 VGND VNB VPB VPWR X
.ends

* Black-box entry subcircuit for sky130_fd_sc_hd__o22ai_2 abstract view
.subckt sky130_fd_sc_hd__o22ai_2 A1 A2 B1 B2 VGND VNB VPB VPWR Y
.ends

* Black-box entry subcircuit for sky130_fd_sc_hd__clkinv_2 abstract view
.subckt sky130_fd_sc_hd__clkinv_2 A VGND VNB VPB VPWR Y
.ends

* Black-box entry subcircuit for sky130_fd_sc_hd__o32a_2 abstract view
.subckt sky130_fd_sc_hd__o32a_2 A1 A2 A3 B1 B2 VGND VNB VPB VPWR X
.ends

* Black-box entry subcircuit for sky130_fd_sc_hd__clkinv_8 abstract view
.subckt sky130_fd_sc_hd__clkinv_8 A VGND VNB VPB VPWR Y
.ends

* Black-box entry subcircuit for sky130_fd_sc_hd__o211a_2 abstract view
.subckt sky130_fd_sc_hd__o211a_2 A1 A2 B1 C1 VGND VNB VPB VPWR X
.ends

* Black-box entry subcircuit for sky130_fd_sc_hd__a21o_2 abstract view
.subckt sky130_fd_sc_hd__a21o_2 A1 A2 B1 VGND VNB VPB VPWR X
.ends

* Black-box entry subcircuit for sky130_fd_sc_hd__o2111ai_2 abstract view
.subckt sky130_fd_sc_hd__o2111ai_2 A1 A2 B1 C1 D1 VGND VNB VPB VPWR Y
.ends

* Black-box entry subcircuit for sky130_fd_sc_hd__conb_1 abstract view
.subckt sky130_fd_sc_hd__conb_1 VGND VNB VPB VPWR HI LO
.ends

* Black-box entry subcircuit for sky130_fd_sc_hd__o2bb2ai_2 abstract view
.subckt sky130_fd_sc_hd__o2bb2ai_2 A1_N A2_N B1 B2 VGND VNB VPB VPWR Y
.ends

* Black-box entry subcircuit for sky130_fd_sc_hd__and2_2 abstract view
.subckt sky130_fd_sc_hd__and2_2 A B VGND VNB VPB VPWR X
.ends

* Black-box entry subcircuit for sky130_fd_sc_hd__or4_2 abstract view
.subckt sky130_fd_sc_hd__or4_2 A B C D VGND VNB VPB VPWR X
.ends

* Black-box entry subcircuit for sky130_fd_sc_hd__a22oi_2 abstract view
.subckt sky130_fd_sc_hd__a22oi_2 A1 A2 B1 B2 VGND VNB VPB VPWR Y
.ends

.subckt digital_pll VGND VPWR clockp[0] clockp[1] dco div[0] div[1] div[2] div[3]
+ div[4] enable ext_trim[0] ext_trim[10] ext_trim[11] ext_trim[12] ext_trim[13] ext_trim[14]
+ ext_trim[15] ext_trim[16] ext_trim[17] ext_trim[18] ext_trim[19] ext_trim[1] ext_trim[20]
+ ext_trim[21] ext_trim[22] ext_trim[23] ext_trim[24] ext_trim[25] ext_trim[2] ext_trim[3]
+ ext_trim[4] ext_trim[5] ext_trim[6] ext_trim[7] ext_trim[8] ext_trim[9] osc resetb
X_294_ _297_/C _302_/C _301_/A VGND VGND VPWR VPWR _294_/X sky130_fd_sc_hd__or3_2
X_363_ _328_/A _363_/D _318_/X VGND VGND VPWR VPWR _363_/Q sky130_fd_sc_hd__dfrtp_2
Xringosc.dstage\[1\].id.delayint0 ringosc.dstage\[1\].id.delayen1/Z VGND VGND VPWR
+ VPWR ringosc.dstage\[1\].id.delayen0/A sky130_fd_sc_hd__clkinv_1
X_346_ _288_/B ext_trim[3] dco VGND VGND VPWR VPWR _346_/X sky130_fd_sc_hd__mux2_1
X_277_ _362_/Q _272_/B _363_/Q _267_/B _226_/B VGND VGND VPWR VPWR _359_/D sky130_fd_sc_hd__a311o_2
X_200_ _196_/A _199_/Y _196_/A _199_/Y VGND VGND VPWR VPWR _200_/X sky130_fd_sc_hd__a2bb2o_2
X_329_ _292_/B _232_/B _370_/Q VGND VGND VPWR VPWR _329_/X sky130_fd_sc_hd__mux2_1
Xringosc.dstage\[11\].id.delayen1 ringosc.dstage\[11\].id.delayen1/A _331_/X VGND
+ VGND VPWR VPWR ringosc.dstage\[11\].id.delayen1/Z sky130_fd_sc_hd__einvp_2
XFILLER_22_7 VGND VGND VPWR VPWR sky130_fd_sc_hd__fill_1
XFILLER_18_75 VGND VGND VPWR VPWR sky130_fd_sc_hd__fill_1
Xringosc.dstage\[10\].id.delayenb0 ringosc.dstage\[10\].id.delayenb1/A _332_/X VGND
+ VGND VPWR VPWR ringosc.dstage\[10\].id.delayen0/Z sky130_fd_sc_hd__einvn_8
Xringosc.dstage\[9\].id.delayenb0 ringosc.dstage\[9\].id.delayenb1/A _334_/X VGND
+ VGND VPWR VPWR ringosc.dstage\[9\].id.delayen0/Z sky130_fd_sc_hd__einvn_8
XFILLER_13_3 VGND VGND VPWR VPWR sky130_fd_sc_hd__fill_2
XFILLER_15_76 VGND VGND VPWR VPWR sky130_fd_sc_hd__fill_2
X_293_ _367_/Q _221_/B _302_/B _370_/Q _232_/B VGND VGND VPWR VPWR _293_/X sky130_fd_sc_hd__o311a_2
XFILLER_13_134 VGND VGND VPWR VPWR sky130_fd_sc_hd__fill_2
XFILLER_3_57 VGND VGND VPWR VPWR sky130_fd_sc_hd__fill_1
XFILLER_3_24 VGND VGND VPWR VPWR sky130_fd_sc_hd__decap_6
X_362_ _328_/A _362_/D _319_/X VGND VGND VPWR VPWR _362_/Q sky130_fd_sc_hd__dfrtp_2
XFILLER_10_104 VGND VGND VPWR VPWR sky130_fd_sc_hd__fill_1
XFILLER_12_99 VGND VGND VPWR VPWR sky130_fd_sc_hd__decap_3
X_345_ _300_/X ext_trim[17] dco VGND VGND VPWR VPWR _345_/X sky130_fd_sc_hd__mux2_1
X_276_ _276_/A _276_/B VGND VGND VPWR VPWR _360_/D sky130_fd_sc_hd__or2_2
X_328_ _328_/A VGND VGND VPWR VPWR clockp[0] sky130_fd_sc_hd__buf_2
XFILLER_9_78 VGND VGND VPWR VPWR sky130_fd_sc_hd__fill_1
X_259_ _366_/Q _220_/Y _262_/A VGND VGND VPWR VPWR _259_/X sky130_fd_sc_hd__mux2_1
XFILLER_20_99 VGND VGND VPWR VPWR sky130_fd_sc_hd__fill_2
Xringosc.dstage\[9\].id.delayenb1 ringosc.dstage\[9\].id.delayenb1/A _335_/X VGND
+ VGND VPWR VPWR ringosc.dstage\[9\].id.delayen1/Z sky130_fd_sc_hd__einvn_4
Xringosc.dstage\[10\].id.delayenb1 ringosc.dstage\[10\].id.delayenb1/A _333_/X VGND
+ VGND VPWR VPWR ringosc.dstage\[10\].id.delayen1/Z sky130_fd_sc_hd__einvn_4
XFILLER_15_55 VGND VGND VPWR VPWR sky130_fd_sc_hd__fill_1
XFILLER_16_121 VGND VGND VPWR VPWR sky130_fd_sc_hd__fill_1
XFILLER_22_135 VGND VGND VPWR VPWR sky130_fd_sc_hd__fill_1
X_292_ _301_/A _292_/B VGND VGND VPWR VPWR _299_/B sky130_fd_sc_hd__nand2_2
X_361_ _328_/A _361_/D _320_/X VGND VGND VPWR VPWR _361_/Q sky130_fd_sc_hd__dfrtp_2
X_344_ _286_/X ext_trim[4] dco VGND VGND VPWR VPWR _344_/X sky130_fd_sc_hd__mux2_1
X_275_ _267_/A _267_/B _360_/Q _359_/Q _272_/D VGND VGND VPWR VPWR _276_/B sky130_fd_sc_hd__o221a_2
Xringosc.dstage\[4\].id.delayen0 ringosc.dstage\[4\].id.delayen0/A _344_/X VGND VGND
+ VPWR VPWR ringosc.dstage\[4\].id.delayen0/Z sky130_fd_sc_hd__einvp_2
XFILLER_3_3 VGND VGND VPWR VPWR sky130_fd_sc_hd__fill_1
XFILLER_2_134 VGND VGND VPWR VPWR sky130_fd_sc_hd__fill_2
XFILLER_0_37 VGND VGND VPWR VPWR sky130_fd_sc_hd__decap_6
X_189_ _371_/Q _226_/B VGND VGND VPWR VPWR _371_/D sky130_fd_sc_hd__or2_2
X_258_ _262_/A _262_/B VGND VGND VPWR VPWR _258_/X sky130_fd_sc_hd__or2_2
X_327_ _327_/A VGND VGND VPWR VPWR _327_/X sky130_fd_sc_hd__buf_1
XFILLER_20_45 VGND VGND VPWR VPWR sky130_fd_sc_hd__fill_2
XFILLER_15_67 VGND VGND VPWR VPWR sky130_fd_sc_hd__decap_4
Xringosc.dstage\[9\].id.delaybuf0 ringosc.dstage\[8\].id.delayen0/Z VGND VGND VPWR
+ VPWR ringosc.dstage\[9\].id.delayenb1/A sky130_fd_sc_hd__clkbuf_2
Xringosc.dstage\[5\].id.delayenb0 ringosc.dstage\[5\].id.delayenb1/A _342_/X VGND
+ VGND VPWR VPWR ringosc.ibufp10/A sky130_fd_sc_hd__einvn_8
Xringosc.dstage\[10\].id.delaybuf0 ringosc.dstage\[9\].id.delayen0/Z VGND VGND VPWR
+ VPWR ringosc.dstage\[10\].id.delayenb1/A sky130_fd_sc_hd__clkbuf_2
X_360_ _328_/A _360_/D _321_/X VGND VGND VPWR VPWR _360_/Q sky130_fd_sc_hd__dfrtp_2
XFILLER_7_90 VGND VGND VPWR VPWR sky130_fd_sc_hd__decap_6
X_291_ _369_/Q _368_/Q _367_/Q _370_/Q VGND VGND VPWR VPWR _291_/X sky130_fd_sc_hd__a31o_2
XFILLER_3_48 VGND VGND VPWR VPWR sky130_fd_sc_hd__fill_1
XFILLER_3_37 VGND VGND VPWR VPWR sky130_fd_sc_hd__fill_1
XFILLER_12_68 VGND VGND VPWR VPWR sky130_fd_sc_hd__fill_2
X_343_ _301_/Y ext_trim[18] dco VGND VGND VPWR VPWR _343_/X sky130_fd_sc_hd__mux2_1
X_274_ _272_/D _268_/A _273_/Y _276_/A VGND VGND VPWR VPWR _361_/D sky130_fd_sc_hd__a31o_2
Xringosc.dstage\[4\].id.delayen1 ringosc.dstage\[4\].id.delayen1/A _345_/X VGND VGND
+ VPWR VPWR ringosc.dstage\[4\].id.delayen1/Z sky130_fd_sc_hd__einvp_2
X_188_ _372_/Q _272_/D _371_/Q _226_/B VGND VGND VPWR VPWR _372_/D sky130_fd_sc_hd__a22o_2
XFILLER_9_47 VGND VGND VPWR VPWR sky130_fd_sc_hd__fill_2
X_257_ _236_/A _251_/X _256_/Y _368_/Q _236_/Y VGND VGND VPWR VPWR _368_/D sky130_fd_sc_hd__a32o_2
X_326_ _370_/Q VGND VGND VPWR VPWR _326_/X sky130_fd_sc_hd__buf_1
XFILLER_18_67 VGND VGND VPWR VPWR sky130_fd_sc_hd__decap_8
X_309_ _327_/A VGND VGND VPWR VPWR _309_/X sky130_fd_sc_hd__buf_1
XFILLER_15_24 VGND VGND VPWR VPWR sky130_fd_sc_hd__fill_1
Xringosc.dstage\[9\].id.delaybuf1 ringosc.dstage\[9\].id.delayenb1/A VGND VGND VPWR
+ VPWR ringosc.dstage\[9\].id.delayen1/A sky130_fd_sc_hd__clkbuf_1
Xringosc.dstage\[5\].id.delayenb1 ringosc.dstage\[5\].id.delayenb1/A _343_/X VGND
+ VGND VPWR VPWR ringosc.dstage\[5\].id.delayen1/Z sky130_fd_sc_hd__einvn_4
Xringosc.dstage\[10\].id.delaybuf1 ringosc.dstage\[10\].id.delayenb1/A VGND VGND VPWR
+ VPWR ringosc.dstage\[10\].id.delayen1/A sky130_fd_sc_hd__clkbuf_1
X_290_ _369_/Q _368_/Q _297_/C _370_/Q VGND VGND VPWR VPWR _290_/X sky130_fd_sc_hd__a31o_2
X_342_ _283_/X ext_trim[5] dco VGND VGND VPWR VPWR _342_/X sky130_fd_sc_hd__mux2_1
X_273_ _267_/A _267_/B _267_/C VGND VGND VPWR VPWR _273_/Y sky130_fd_sc_hd__o21ai_2
XFILLER_4_81 VGND VGND VPWR VPWR sky130_fd_sc_hd__decap_3
X_187_ _372_/Q _226_/B _373_/Q _272_/D VGND VGND VPWR VPWR _373_/D sky130_fd_sc_hd__a22o_2
X_325_ _327_/A VGND VGND VPWR VPWR _325_/X sky130_fd_sc_hd__buf_1
X_256_ _256_/A _256_/B VGND VGND VPWR VPWR _256_/Y sky130_fd_sc_hd__nand2_2
X_308_ _327_/A VGND VGND VPWR VPWR _308_/X sky130_fd_sc_hd__buf_1
X_239_ _288_/A _239_/B VGND VGND VPWR VPWR _239_/Y sky130_fd_sc_hd__nor2_2
XFILLER_19_110 VGND VGND VPWR VPWR sky130_fd_sc_hd__fill_2
XFILLER_6_27 VGND VGND VPWR VPWR sky130_fd_sc_hd__fill_1
XFILLER_6_38 VGND VGND VPWR VPWR sky130_fd_sc_hd__decap_3
XFILLER_16_135 VGND VGND VPWR VPWR sky130_fd_sc_hd__fill_1
XFILLER_7_81 VGND VGND VPWR VPWR sky130_fd_sc_hd__fill_2
Xringosc.dstage\[5\].id.delaybuf0 ringosc.dstage\[4\].id.delayen0/Z VGND VGND VPWR
+ VPWR ringosc.dstage\[5\].id.delayenb1/A sky130_fd_sc_hd__clkbuf_2
X_341_ _299_/B ext_trim[19] dco VGND VGND VPWR VPWR _341_/X sky130_fd_sc_hd__mux2_1
Xringosc.dstage\[1\].id.delayenb0 ringosc.dstage\[1\].id.delayenb1/A _350_/X VGND
+ VGND VPWR VPWR ringosc.dstage\[1\].id.delayen0/Z sky130_fd_sc_hd__einvn_8
X_272_ _362_/Q _272_/B _363_/Q _272_/D VGND VGND VPWR VPWR _276_/A sky130_fd_sc_hd__and4_2
XFILLER_12_48 VGND VGND VPWR VPWR sky130_fd_sc_hd__fill_2
Xringosc.dstage\[8\].id.delayint0 ringosc.dstage\[8\].id.delayen1/Z VGND VGND VPWR
+ VPWR ringosc.dstage\[8\].id.delayen0/A sky130_fd_sc_hd__clkinv_1
XFILLER_5_134 VGND VGND VPWR VPWR sky130_fd_sc_hd__fill_2
X_324_ _327_/A VGND VGND VPWR VPWR _324_/X sky130_fd_sc_hd__buf_1
X_186_ _374_/Q _272_/D _359_/Q _226_/B VGND VGND VPWR VPWR _374_/D sky130_fd_sc_hd__a22o_2
XFILLER_9_27 VGND VGND VPWR VPWR sky130_fd_sc_hd__fill_1
X_255_ _297_/A _236_/A _254_/X VGND VGND VPWR VPWR _369_/D sky130_fd_sc_hd__o21ai_2
XFILLER_1_3 VGND VGND VPWR VPWR sky130_fd_sc_hd__fill_2
X_169_ _374_/Q VGND VGND VPWR VPWR _193_/B sky130_fd_sc_hd__inv_2
X_307_ _327_/A VGND VGND VPWR VPWR _307_/X sky130_fd_sc_hd__buf_1
X_238_ _224_/A _220_/A _224_/B _237_/X VGND VGND VPWR VPWR _262_/A sky130_fd_sc_hd__o22a_2
XFILLER_20_26 VGND VGND VPWR VPWR sky130_fd_sc_hd__fill_2
XFILLER_19_100 VGND VGND VPWR VPWR sky130_fd_sc_hd__fill_1
XFILLER_6_17 VGND VGND VPWR VPWR sky130_fd_sc_hd__fill_1
XPHY_0 VGND VGND VPWR VPWR sky130_fd_sc_hd__decap_3
Xringosc.dstage\[5\].id.delaybuf1 ringosc.dstage\[5\].id.delayenb1/A VGND VGND VPWR
+ VPWR ringosc.dstage\[5\].id.delayen1/A sky130_fd_sc_hd__clkbuf_1
Xringosc.dstage\[1\].id.delayenb1 ringosc.dstage\[1\].id.delayenb1/A _351_/X VGND
+ VGND VPWR VPWR ringosc.dstage\[1\].id.delayen1/Z sky130_fd_sc_hd__einvn_4
XFILLER_12_27 VGND VGND VPWR VPWR sky130_fd_sc_hd__fill_1
X_340_ _279_/X ext_trim[6] dco VGND VGND VPWR VPWR _340_/X sky130_fd_sc_hd__mux2_1
X_271_ _362_/Q _272_/B _363_/Q _269_/Y _272_/D VGND VGND VPWR VPWR _362_/D sky130_fd_sc_hd__o221a_2
Xringosc.dstage\[1\].id.delayen0 ringosc.dstage\[1\].id.delayen0/A _350_/X VGND VGND
+ VPWR VPWR ringosc.dstage\[1\].id.delayen0/Z sky130_fd_sc_hd__einvp_2
X_185_ _375_/Q _272_/D _360_/Q _226_/B VGND VGND VPWR VPWR _375_/D sky130_fd_sc_hd__a22o_2
XFILLER_0_19 VGND VGND VPWR VPWR sky130_fd_sc_hd__decap_4
X_323_ _327_/A VGND VGND VPWR VPWR _323_/X sky130_fd_sc_hd__buf_1
X_254_ _244_/Y _253_/A _244_/A _253_/Y _236_/Y VGND VGND VPWR VPWR _254_/X sky130_fd_sc_hd__a221o_2
XFILLER_18_26 VGND VGND VPWR VPWR sky130_fd_sc_hd__fill_2
X_306_ _327_/A VGND VGND VPWR VPWR _306_/X sky130_fd_sc_hd__buf_1
X_237_ _365_/Q _220_/Y _224_/A _220_/A VGND VGND VPWR VPWR _237_/X sky130_fd_sc_hd__a22o_2
X_168_ _359_/Q VGND VGND VPWR VPWR _267_/B sky130_fd_sc_hd__inv_2
XFILLER_20_38 VGND VGND VPWR VPWR sky130_fd_sc_hd__decap_3
XFILLER_15_49 VGND VGND VPWR VPWR sky130_fd_sc_hd__decap_6
XFILLER_16_115 VGND VGND VPWR VPWR sky130_fd_sc_hd__decap_6
XFILLER_22_129 VGND VGND VPWR VPWR sky130_fd_sc_hd__decap_6
XPHY_1 VGND VGND VPWR VPWR sky130_fd_sc_hd__decap_3
XFILLER_12_39 VGND VGND VPWR VPWR sky130_fd_sc_hd__fill_2
XFILLER_5_103 VGND VGND VPWR VPWR sky130_fd_sc_hd__fill_1
X_270_ _164_/Y _269_/Y _226_/B VGND VGND VPWR VPWR _363_/D sky130_fd_sc_hd__a21oi_2
Xringosc.dstage\[1\].id.delayen1 ringosc.dstage\[1\].id.delayen1/A _351_/X VGND VGND
+ VPWR VPWR ringosc.dstage\[1\].id.delayen1/Z sky130_fd_sc_hd__einvp_2
X_322_ _327_/A VGND VGND VPWR VPWR _322_/X sky130_fd_sc_hd__buf_1
Xringosc.dstage\[1\].id.delaybuf0 ringosc.dstage\[0\].id.delayen0/Z VGND VGND VPWR
+ VPWR ringosc.dstage\[1\].id.delayenb1/A sky130_fd_sc_hd__clkbuf_2
Xringosc.dstage\[4\].id.delayint0 ringosc.dstage\[4\].id.delayen1/Z VGND VGND VPWR
+ VPWR ringosc.dstage\[4\].id.delayen0/A sky130_fd_sc_hd__clkinv_1
X_184_ _376_/Q _272_/D _361_/Q _226_/B VGND VGND VPWR VPWR _376_/D sky130_fd_sc_hd__a22o_2
X_253_ _253_/A VGND VGND VPWR VPWR _253_/Y sky130_fd_sc_hd__inv_2
XFILLER_13_60 VGND VGND VPWR VPWR sky130_fd_sc_hd__fill_2
XFILLER_18_49 VGND VGND VPWR VPWR sky130_fd_sc_hd__fill_1
X_167_ _360_/Q VGND VGND VPWR VPWR _267_/A sky130_fd_sc_hd__inv_2
X_305_ _327_/A VGND VGND VPWR VPWR _305_/X sky130_fd_sc_hd__buf_1
X_236_ _236_/A VGND VGND VPWR VPWR _236_/Y sky130_fd_sc_hd__inv_2
XFILLER_10_94 VGND VGND VPWR VPWR sky130_fd_sc_hd__fill_2
XFILLER_19_135 VGND VGND VPWR VPWR sky130_fd_sc_hd__fill_1
X_219_ _219_/A _219_/B VGND VGND VPWR VPWR _220_/A sky130_fd_sc_hd__or2_2
Xringosc.dstage\[9\].id.delayen0 ringosc.dstage\[9\].id.delayen0/A _334_/X VGND VGND
+ VPWR VPWR ringosc.dstage\[9\].id.delayen0/Z sky130_fd_sc_hd__einvp_2
XFILLER_15_39 VGND VGND VPWR VPWR sky130_fd_sc_hd__fill_1
XFILLER_22_108 VGND VGND VPWR VPWR sky130_fd_sc_hd__decap_4
XPHY_2 VGND VGND VPWR VPWR sky130_fd_sc_hd__decap_3
Xringosc.dstage\[1\].id.delaybuf1 ringosc.dstage\[1\].id.delayenb1/A VGND VGND VPWR
+ VPWR ringosc.dstage\[1\].id.delayen1/A sky130_fd_sc_hd__clkbuf_1
X_321_ _327_/A VGND VGND VPWR VPWR _321_/X sky130_fd_sc_hd__buf_1
X_183_ _377_/Q _272_/D _362_/Q _226_/B VGND VGND VPWR VPWR _377_/D sky130_fd_sc_hd__a22o_2
X_252_ _280_/B _220_/A _251_/X VGND VGND VPWR VPWR _253_/A sky130_fd_sc_hd__o21ai_2
X_235_ _301_/A _220_/Y _224_/X _234_/X VGND VGND VPWR VPWR _236_/A sky130_fd_sc_hd__o31a_2
X_304_ _288_/A _239_/B _302_/B _370_/Q _232_/B VGND VGND VPWR VPWR _304_/X sky130_fd_sc_hd__o311a_2
X_166_ _361_/Q VGND VGND VPWR VPWR _267_/C sky130_fd_sc_hd__inv_2
X_218_ _164_/Y _165_/Y div[4] _216_/B _214_/X VGND VGND VPWR VPWR _219_/B sky130_fd_sc_hd__o221ai_2
Xringosc.dstage\[9\].id.delayen1 ringosc.dstage\[9\].id.delayen1/A _335_/X VGND VGND
+ VPWR VPWR ringosc.dstage\[9\].id.delayen1/Z sky130_fd_sc_hd__einvp_2
XPHY_3 VGND VGND VPWR VPWR sky130_fd_sc_hd__decap_3
XFILLER_7_96 VGND VGND VPWR VPWR sky130_fd_sc_hd__fill_1
XFILLER_16_94 VGND VGND VPWR VPWR sky130_fd_sc_hd__decap_4
XFILLER_16_72 VGND VGND VPWR VPWR sky130_fd_sc_hd__decap_3
XFILLER_12_19 VGND VGND VPWR VPWR sky130_fd_sc_hd__fill_1
X_320_ _327_/A VGND VGND VPWR VPWR _320_/X sky130_fd_sc_hd__buf_1
X_182_ dco _182_/B VGND VGND VPWR VPWR _327_/A sky130_fd_sc_hd__nor2_2
X_251_ _256_/A _256_/B VGND VGND VPWR VPWR _251_/X sky130_fd_sc_hd__or2_2
XFILLER_18_29 VGND VGND VPWR VPWR sky130_fd_sc_hd__fill_2
X_303_ _297_/A _368_/Q _367_/Q _302_/X VGND VGND VPWR VPWR _303_/X sky130_fd_sc_hd__o31a_2
XFILLER_1_54 VGND VGND VPWR VPWR sky130_fd_sc_hd__fill_2
X_234_ _219_/B _225_/Y _220_/A _233_/X _226_/X VGND VGND VPWR VPWR _234_/X sky130_fd_sc_hd__o221a_2
X_165_ _378_/Q VGND VGND VPWR VPWR _165_/Y sky130_fd_sc_hd__inv_2
Xringosc.dstage\[0\].id.delayint0 ringosc.dstage\[0\].id.delayen1/Z VGND VGND VPWR
+ VPWR ringosc.dstage\[0\].id.delayen0/A sky130_fd_sc_hd__clkinv_1
Xringosc.iss.reseten0 ringosc.iss.const1/HI _182_/B VGND VGND VPWR VPWR ringosc.ibufp00/A
+ sky130_fd_sc_hd__einvp_1
X_217_ _201_/Y _203_/Y _205_/Y _211_/Y _216_/Y VGND VGND VPWR VPWR _219_/A sky130_fd_sc_hd__o221a_2
XPHY_4 VGND VGND VPWR VPWR sky130_fd_sc_hd__decap_3
Xringosc.dstage\[8\].id.delayenb0 ringosc.dstage\[8\].id.delayenb1/A _336_/X VGND
+ VGND VPWR VPWR ringosc.dstage\[8\].id.delayen0/Z sky130_fd_sc_hd__einvn_8
X_250_ _301_/A _236_/A _249_/X VGND VGND VPWR VPWR _370_/D sky130_fd_sc_hd__o21ai_2
X_181_ enable resetb VGND VGND VPWR VPWR _182_/B sky130_fd_sc_hd__nand2_2
X_233_ _365_/Q _364_/Q _233_/C VGND VGND VPWR VPWR _233_/X sky130_fd_sc_hd__or3_2
X_164_ _363_/Q VGND VGND VPWR VPWR _164_/Y sky130_fd_sc_hd__inv_2
X_302_ _370_/Q _302_/B _302_/C VGND VGND VPWR VPWR _302_/X sky130_fd_sc_hd__and3_2
XFILLER_18_3 VGND VGND VPWR VPWR sky130_fd_sc_hd__fill_2
X_216_ div[4] _216_/B VGND VGND VPWR VPWR _216_/Y sky130_fd_sc_hd__nand2_2
Xringosc.iss.delayint0 ringosc.iss.delayen1/Z VGND VGND VPWR VPWR ringosc.iss.delayen0/A
+ sky130_fd_sc_hd__clkinv_1
XPHY_5 VGND VGND VPWR VPWR sky130_fd_sc_hd__decap_3
Xringosc.dstage\[8\].id.delayenb1 ringosc.dstage\[8\].id.delayenb1/A _337_/X VGND
+ VGND VPWR VPWR ringosc.dstage\[8\].id.delayen1/Z sky130_fd_sc_hd__einvn_4
X_180_ _378_/Q _272_/D _363_/Q _226_/B VGND VGND VPWR VPWR _378_/D sky130_fd_sc_hd__a22o_2
XFILLER_13_86 VGND VGND VPWR VPWR sky130_fd_sc_hd__fill_2
X_378_ _328_/A _378_/D _327_/X VGND VGND VPWR VPWR _378_/Q sky130_fd_sc_hd__dfrtp_2
X_301_ _301_/A _301_/B VGND VGND VPWR VPWR _301_/Y sky130_fd_sc_hd__nor2_2
X_232_ _370_/Q _232_/B VGND VGND VPWR VPWR _233_/C sky130_fd_sc_hd__or2_2
XFILLER_1_78 VGND VGND VPWR VPWR sky130_fd_sc_hd__fill_1
Xringosc.dstage\[6\].id.delayen0 ringosc.dstage\[6\].id.delayen0/A _340_/X VGND VGND
+ VPWR VPWR ringosc.dstage\[6\].id.delayen0/Z sky130_fd_sc_hd__einvp_2
X_215_ _214_/A _214_/B _214_/X VGND VGND VPWR VPWR _216_/B sky130_fd_sc_hd__a21bo_2
XPHY_6 VGND VGND VPWR VPWR sky130_fd_sc_hd__decap_3
XFILLER_12_134 VGND VGND VPWR VPWR sky130_fd_sc_hd__fill_2
XFILLER_1_111 VGND VGND VPWR VPWR sky130_fd_sc_hd__fill_1
X_377_ _328_/A _377_/D _327_/A VGND VGND VPWR VPWR _377_/Q sky130_fd_sc_hd__dfrtp_2
XFILLER_8_3 VGND VGND VPWR VPWR sky130_fd_sc_hd__fill_2
XFILLER_13_54 VGND VGND VPWR VPWR sky130_fd_sc_hd__fill_2
Xringosc.dstage\[8\].id.delaybuf0 ringosc.dstage\[7\].id.delayen0/Z VGND VGND VPWR
+ VPWR ringosc.dstage\[8\].id.delayenb1/A sky130_fd_sc_hd__clkbuf_2
Xringosc.dstage\[4\].id.delayenb0 ringosc.dstage\[4\].id.delayenb1/A _344_/X VGND
+ VGND VPWR VPWR ringosc.dstage\[4\].id.delayen0/Z sky130_fd_sc_hd__einvn_8
X_300_ _221_/A _366_/Q _301_/A _302_/C _296_/X VGND VGND VPWR VPWR _300_/X sky130_fd_sc_hd__o41a_2
X_231_ _297_/C _302_/B VGND VGND VPWR VPWR _232_/B sky130_fd_sc_hd__or2_2
XTAP_90 VGND VPWR sky130_fd_sc_hd__tapvpwrvgnd_1
XFILLER_19_118 VGND VGND VPWR VPWR sky130_fd_sc_hd__decap_3
Xringosc.dstage\[10\].id.delayen0 ringosc.dstage\[10\].id.delayen0/A _332_/X VGND
+ VGND VPWR VPWR ringosc.dstage\[10\].id.delayen0/Z sky130_fd_sc_hd__einvp_2
Xringosc.dstage\[6\].id.delayen1 ringosc.dstage\[6\].id.delayen1/A _341_/X VGND VGND
+ VPWR VPWR ringosc.dstage\[6\].id.delayen1/Z sky130_fd_sc_hd__einvp_2
X_214_ _214_/A _214_/B VGND VGND VPWR VPWR _214_/X sky130_fd_sc_hd__or2_2
XFILLER_21_21 VGND VGND VPWR VPWR sky130_fd_sc_hd__fill_1
XPHY_7 VGND VGND VPWR VPWR sky130_fd_sc_hd__decap_3
XFILLER_21_135 VGND VGND VPWR VPWR sky130_fd_sc_hd__fill_1
XFILLER_16_98 VGND VGND VPWR VPWR sky130_fd_sc_hd__fill_1
XFILLER_16_32 VGND VGND VPWR VPWR sky130_fd_sc_hd__decap_8
XFILLER_4_120 VGND VGND VPWR VPWR sky130_fd_sc_hd__decap_3
XFILLER_1_134 VGND VGND VPWR VPWR sky130_fd_sc_hd__fill_2
Xringosc.dstage\[4\].id.delayenb1 ringosc.dstage\[4\].id.delayenb1/A _345_/X VGND
+ VGND VPWR VPWR ringosc.dstage\[4\].id.delayen1/Z sky130_fd_sc_hd__einvn_4
Xringosc.dstage\[8\].id.delaybuf1 ringosc.dstage\[8\].id.delayenb1/A VGND VGND VPWR
+ VPWR ringosc.dstage\[8\].id.delayen1/A sky130_fd_sc_hd__clkbuf_1
X_376_ _328_/A _376_/D _305_/X VGND VGND VPWR VPWR _376_/Q sky130_fd_sc_hd__dfrtp_2
X_230_ _302_/B VGND VGND VPWR VPWR _301_/B sky130_fd_sc_hd__inv_2
X_359_ _328_/A _359_/D _322_/X VGND VGND VPWR VPWR _359_/Q sky130_fd_sc_hd__dfrtp_2
XTAP_91 VGND VPWR sky130_fd_sc_hd__tapvpwrvgnd_1
XTAP_80 VGND VPWR sky130_fd_sc_hd__tapvpwrvgnd_1
XFILLER_10_34 VGND VGND VPWR VPWR sky130_fd_sc_hd__decap_6
Xringosc.dstage\[10\].id.delayen1 ringosc.dstage\[10\].id.delayen1/A _333_/X VGND
+ VGND VPWR VPWR ringosc.dstage\[10\].id.delayen1/Z sky130_fd_sc_hd__einvp_2
XFILLER_19_87 VGND VGND VPWR VPWR sky130_fd_sc_hd__fill_1
X_213_ _362_/Q _377_/Q _190_/Y _197_/X VGND VGND VPWR VPWR _214_/B sky130_fd_sc_hd__o2bb2a_2
XFILLER_21_55 VGND VGND VPWR VPWR sky130_fd_sc_hd__fill_1
XFILLER_16_3 VGND VGND VPWR VPWR sky130_fd_sc_hd__decap_12
XPHY_8 VGND VGND VPWR VPWR sky130_fd_sc_hd__decap_3
XFILLER_4_58 VGND VGND VPWR VPWR sky130_fd_sc_hd__fill_2
XFILLER_13_34 VGND VGND VPWR VPWR sky130_fd_sc_hd__fill_2
X_375_ _328_/A _375_/D _306_/X VGND VGND VPWR VPWR _375_/Q sky130_fd_sc_hd__dfrtp_2
X_358_ _328_/A _358_/D _323_/X VGND VGND VPWR VPWR _358_/Q sky130_fd_sc_hd__dfrtp_2
XTAP_92 VGND VPWR sky130_fd_sc_hd__tapvpwrvgnd_1
Xringosc.dstage\[4\].id.delaybuf0 ringosc.dstage\[3\].id.delayen0/Z VGND VGND VPWR
+ VPWR ringosc.dstage\[4\].id.delayenb1/A sky130_fd_sc_hd__clkbuf_2
XTAP_81 VGND VPWR sky130_fd_sc_hd__tapvpwrvgnd_1
XTAP_70 VGND VPWR sky130_fd_sc_hd__tapvpwrvgnd_1
X_289_ _297_/A _368_/Q _370_/Q _284_/X VGND VGND VPWR VPWR _289_/X sky130_fd_sc_hd__o31a_2
Xringosc.dstage\[7\].id.delayint0 ringosc.dstage\[7\].id.delayen1/Z VGND VGND VPWR
+ VPWR ringosc.dstage\[7\].id.delayen0/A sky130_fd_sc_hd__clkinv_1
XFILLER_19_55 VGND VGND VPWR VPWR sky130_fd_sc_hd__fill_1
X_212_ _363_/Q _378_/Q _164_/Y _165_/Y VGND VGND VPWR VPWR _214_/A sky130_fd_sc_hd__a22o_2
Xringosc.dstage\[0\].id.delayenb0 ringosc.dstage\[0\].id.delayenb1/A _352_/X VGND
+ VGND VPWR VPWR ringosc.dstage\[0\].id.delayen0/Z sky130_fd_sc_hd__einvn_8
XFILLER_15_134 VGND VGND VPWR VPWR sky130_fd_sc_hd__fill_2
XPHY_9 VGND VGND VPWR VPWR sky130_fd_sc_hd__decap_3
XFILLER_21_104 VGND VGND VPWR VPWR sky130_fd_sc_hd__fill_1
XFILLER_16_23 VGND VGND VPWR VPWR sky130_fd_sc_hd__decap_4
X_374_ _328_/A _374_/D _307_/X VGND VGND VPWR VPWR _374_/Q sky130_fd_sc_hd__dfrtp_2
XFILLER_6_3 VGND VGND VPWR VPWR sky130_fd_sc_hd__fill_1
XTAP_93 VGND VPWR sky130_fd_sc_hd__tapvpwrvgnd_1
Xringosc.dstage\[3\].id.delayen0 ringosc.dstage\[3\].id.delayen0/A _346_/X VGND VGND
+ VPWR VPWR ringosc.dstage\[3\].id.delayen0/Z sky130_fd_sc_hd__einvp_2
X_288_ _288_/A _288_/B VGND VGND VPWR VPWR _288_/X sky130_fd_sc_hd__or2_2
XTAP_82 VGND VPWR sky130_fd_sc_hd__tapvpwrvgnd_1
X_357_ _328_/A _357_/D _324_/X VGND VGND VPWR VPWR _358_/D sky130_fd_sc_hd__dfrtp_2
XTAP_60 VGND VPWR sky130_fd_sc_hd__tapvpwrvgnd_1
XTAP_71 VGND VPWR sky130_fd_sc_hd__tapvpwrvgnd_1
Xringosc.dstage\[4\].id.delaybuf1 ringosc.dstage\[4\].id.delayenb1/A VGND VGND VPWR
+ VPWR ringosc.dstage\[4\].id.delayen1/A sky130_fd_sc_hd__clkbuf_1
X_211_ div[1] _207_/B _210_/X VGND VGND VPWR VPWR _211_/Y sky130_fd_sc_hd__a21oi_2
XFILLER_10_25 VGND VGND VPWR VPWR sky130_fd_sc_hd__decap_3
Xringosc.dstage\[0\].id.delayenb1 ringosc.dstage\[0\].id.delayenb1/A _353_/X VGND
+ VGND VPWR VPWR ringosc.dstage\[0\].id.delayen1/Z sky130_fd_sc_hd__einvn_4
Xringosc.iss.delayenb0 ringosc.iss.delayenb1/A ringosc.iss.ctrlen0/X VGND VGND VPWR
+ VPWR ringosc.ibufp00/A sky130_fd_sc_hd__einvn_8
XFILLER_12_105 VGND VGND VPWR VPWR sky130_fd_sc_hd__fill_1
X_373_ _328_/A _373_/D _308_/X VGND VGND VPWR VPWR _373_/Q sky130_fd_sc_hd__dfrtp_2
X_287_ _297_/A _368_/Q _370_/Q _288_/A _284_/X VGND VGND VPWR VPWR _287_/X sky130_fd_sc_hd__o41a_2
X_356_ _328_/A osc _325_/X VGND VGND VPWR VPWR _357_/D sky130_fd_sc_hd__dfrtp_2
XTAP_94 VGND VPWR sky130_fd_sc_hd__tapvpwrvgnd_1
Xringosc.dstage\[3\].id.delayen1 ringosc.dstage\[3\].id.delayen1/A _347_/X VGND VGND
+ VPWR VPWR ringosc.dstage\[3\].id.delayen1/Z sky130_fd_sc_hd__einvp_2
XFILLER_19_68 VGND VGND VPWR VPWR sky130_fd_sc_hd__fill_1
XTAP_83 VGND VPWR sky130_fd_sc_hd__tapvpwrvgnd_1
XTAP_50 VGND VPWR sky130_fd_sc_hd__tapvpwrvgnd_1