* NGSPICE file created from digital_pll.ext - technology: sky130A

* Black-box entry subcircuit for sky130_fd_sc_hd__nor2_2 abstract view
.subckt sky130_fd_sc_hd__nor2_2 A B VGND VNB VPB VPWR Y
.ends

* Black-box entry subcircuit for sky130_fd_sc_hd__buf_2 abstract view
.subckt sky130_fd_sc_hd__buf_2 A VGND VNB VPB VPWR X
.ends

* Black-box entry subcircuit for sky130_fd_sc_hd__or3_2 abstract view
.subckt sky130_fd_sc_hd__or3_2 A B C VGND VNB VPB VPWR X
.ends

* Black-box entry subcircuit for sky130_fd_sc_hd__clkinv_1 abstract view
.subckt sky130_fd_sc_hd__clkinv_1 A VGND VNB VPB VPWR Y
.ends

* Black-box entry subcircuit for sky130_fd_sc_hd__a22o_2 abstract view
.subckt sky130_fd_sc_hd__a22o_2 A1 A2 B1 B2 VGND VNB VPB VPWR X
.ends

* Black-box entry subcircuit for sky130_fd_sc_hd__diode_2 abstract view
.subckt sky130_fd_sc_hd__diode_2 DIODE VGND VNB VPB VPWR
.ends

* Black-box entry subcircuit for sky130_fd_sc_hd__nand2_2 abstract view
.subckt sky130_fd_sc_hd__nand2_2 A B VGND VNB VPB VPWR Y
.ends

* Black-box entry subcircuit for sky130_fd_sc_hd__and3_2 abstract view
.subckt sky130_fd_sc_hd__and3_2 A B C VGND VNB VPB VPWR X
.ends

* Black-box entry subcircuit for sky130_fd_sc_hd__einvp_2 abstract view
.subckt sky130_fd_sc_hd__einvp_2 A TE VGND VNB VPB VPWR Z
.ends

* Black-box entry subcircuit for sky130_fd_sc_hd__decap_4 abstract view
.subckt sky130_fd_sc_hd__decap_4 VGND VNB VPB VPWR
.ends

* Black-box entry subcircuit for sky130_fd_sc_hd__fill_1 abstract view
.subckt sky130_fd_sc_hd__fill_1 VGND VNB VPB VPWR
.ends

* Black-box entry subcircuit for sky130_fd_sc_hd__a21oi_2 abstract view
.subckt sky130_fd_sc_hd__a21oi_2 A1 A2 B1 VGND VNB VPB VPWR Y
.ends

* Black-box entry subcircuit for sky130_fd_sc_hd__einvn_8 abstract view
.subckt sky130_fd_sc_hd__einvn_8 A TE_B VGND VNB VPB VPWR Z
.ends

* Black-box entry subcircuit for sky130_fd_sc_hd__a21bo_2 abstract view
.subckt sky130_fd_sc_hd__a21bo_2 A1 A2 B1_N VGND VNB VPB VPWR X
.ends

* Black-box entry subcircuit for sky130_fd_sc_hd__xor2_2 abstract view
.subckt sky130_fd_sc_hd__xor2_2 A B VGND VNB VPB VPWR X
.ends

* Black-box entry subcircuit for sky130_fd_sc_hd__a21o_2 abstract view
.subckt sky130_fd_sc_hd__a21o_2 A1 A2 B1 VGND VNB VPB VPWR X
.ends

* Black-box entry subcircuit for sky130_fd_sc_hd__or2_2 abstract view
.subckt sky130_fd_sc_hd__or2_2 A B VGND VNB VPB VPWR X
.ends

* Black-box entry subcircuit for sky130_fd_sc_hd__einvn_4 abstract view
.subckt sky130_fd_sc_hd__einvn_4 A TE_B VGND VNB VPB VPWR Z
.ends

* Black-box entry subcircuit for sky130_fd_sc_hd__or4bb_2 abstract view
.subckt sky130_fd_sc_hd__or4bb_2 A B C_N D_N VGND VNB VPB VPWR X
.ends

* Black-box entry subcircuit for sky130_fd_sc_hd__and3b_2 abstract view
.subckt sky130_fd_sc_hd__and3b_2 A_N B C VGND VNB VPB VPWR X
.ends

* Black-box entry subcircuit for sky130_fd_sc_hd__o21a_2 abstract view
.subckt sky130_fd_sc_hd__o21a_2 A1 A2 B1 VGND VNB VPB VPWR X
.ends

* Black-box entry subcircuit for sky130_fd_sc_hd__clkbuf_2 abstract view
.subckt sky130_fd_sc_hd__clkbuf_2 A VGND VNB VPB VPWR X
.ends

* Black-box entry subcircuit for sky130_fd_sc_hd__xnor2_2 abstract view
.subckt sky130_fd_sc_hd__xnor2_2 A B VGND VNB VPB VPWR Y
.ends

* Black-box entry subcircuit for sky130_fd_sc_hd__and2_2 abstract view
.subckt sky130_fd_sc_hd__and2_2 A B VGND VNB VPB VPWR X
.ends

* Black-box entry subcircuit for sky130_fd_sc_hd__clkbuf_1 abstract view
.subckt sky130_fd_sc_hd__clkbuf_1 A VGND VNB VPB VPWR X
.ends

* Black-box entry subcircuit for sky130_fd_sc_hd__fill_2 abstract view
.subckt sky130_fd_sc_hd__fill_2 VGND VNB VPB VPWR
.ends

* Black-box entry subcircuit for sky130_fd_sc_hd__inv_2 abstract view
.subckt sky130_fd_sc_hd__inv_2 A VGND VNB VPB VPWR Y
.ends

* Black-box entry subcircuit for sky130_fd_sc_hd__a32o_2 abstract view
.subckt sky130_fd_sc_hd__a32o_2 A1 A2 A3 B1 B2 VGND VNB VPB VPWR X
.ends

* Black-box entry subcircuit for sky130_fd_sc_hd__o211a_2 abstract view
.subckt sky130_fd_sc_hd__o211a_2 A1 A2 B1 C1 VGND VNB VPB VPWR X
.ends

* Black-box entry subcircuit for sky130_fd_sc_hd__a31o_2 abstract view
.subckt sky130_fd_sc_hd__a31o_2 A1 A2 A3 B1 VGND VNB VPB VPWR X
.ends

* Black-box entry subcircuit for sky130_fd_sc_hd__or2b_2 abstract view
.subckt sky130_fd_sc_hd__or2b_2 A B_N VGND VNB VPB VPWR X
.ends

* Black-box entry subcircuit for sky130_fd_sc_hd__decap_3 abstract view
.subckt sky130_fd_sc_hd__decap_3 VGND VNB VPB VPWR
.ends

* Black-box entry subcircuit for sky130_fd_sc_hd__a211o_2 abstract view
.subckt sky130_fd_sc_hd__a211o_2 A1 A2 B1 C1 VGND VNB VPB VPWR X
.ends

* Black-box entry subcircuit for sky130_fd_sc_hd__mux2_2 abstract view
.subckt sky130_fd_sc_hd__mux2_2 A0 A1 S VGND VNB VPB VPWR X
.ends

* Black-box entry subcircuit for sky130_fd_sc_hd__or4_2 abstract view
.subckt sky130_fd_sc_hd__or4_2 A B C D VGND VNB VPB VPWR X
.ends

* Black-box entry subcircuit for sky130_fd_sc_hd__dfrtp_2 abstract view
.subckt sky130_fd_sc_hd__dfrtp_2 CLK D RESET_B VGND VNB VPB VPWR Q
.ends

* Black-box entry subcircuit for sky130_fd_sc_hd__einvp_1 abstract view
.subckt sky130_fd_sc_hd__einvp_1 A TE VGND VNB VPB VPWR Z
.ends

* Black-box entry subcircuit for sky130_fd_sc_hd__a2111oi_2 abstract view
.subckt sky130_fd_sc_hd__a2111oi_2 A1 A2 B1 C1 D1 VGND VNB VPB VPWR Y
.ends

* Black-box entry subcircuit for sky130_fd_sc_hd__o22a_2 abstract view
.subckt sky130_fd_sc_hd__o22a_2 A1 A2 B1 B2 VGND VNB VPB VPWR X
.ends

* Black-box entry subcircuit for sky130_fd_sc_hd__o221a_2 abstract view
.subckt sky130_fd_sc_hd__o221a_2 A1 A2 B1 B2 C1 VGND VNB VPB VPWR X
.ends

* Black-box entry subcircuit for sky130_fd_sc_hd__tapvpwrvgnd_1 abstract view
.subckt sky130_fd_sc_hd__tapvpwrvgnd_1 VGND VPWR
.ends

* Black-box entry subcircuit for sky130_fd_sc_hd__o31a_2 abstract view
.subckt sky130_fd_sc_hd__o31a_2 A1 A2 A3 B1 VGND VNB VPB VPWR X
.ends

* Black-box entry subcircuit for sky130_fd_sc_hd__o21ai_2 abstract view
.subckt sky130_fd_sc_hd__o21ai_2 A1 A2 B1 VGND VNB VPB VPWR Y
.ends

* Black-box entry subcircuit for sky130_fd_sc_hd__clkbuf_16 abstract view
.subckt sky130_fd_sc_hd__clkbuf_16 A VGND VNB VPB VPWR X
.ends

* Black-box entry subcircuit for sky130_fd_sc_hd__and4_2 abstract view
.subckt sky130_fd_sc_hd__and4_2 A B C D VGND VNB VPB VPWR X
.ends

* Black-box entry subcircuit for sky130_fd_sc_hd__or3b_2 abstract view
.subckt sky130_fd_sc_hd__or3b_2 A B C_N VGND VNB VPB VPWR X
.ends

* Black-box entry subcircuit for sky130_fd_sc_hd__nand3_2 abstract view
.subckt sky130_fd_sc_hd__nand3_2 A B C VGND VNB VPB VPWR Y
.ends

* Black-box entry subcircuit for sky130_fd_sc_hd__clkinv_2 abstract view
.subckt sky130_fd_sc_hd__clkinv_2 A VGND VNB VPB VPWR Y
.ends

* Black-box entry subcircuit for sky130_fd_sc_hd__o2bb2a_2 abstract view
.subckt sky130_fd_sc_hd__o2bb2a_2 A1_N A2_N B1 B2 VGND VNB VPB VPWR X
.ends

* Black-box entry subcircuit for sky130_fd_sc_hd__clkinv_8 abstract view
.subckt sky130_fd_sc_hd__clkinv_8 A VGND VNB VPB VPWR Y
.ends

* Black-box entry subcircuit for sky130_fd_sc_hd__conb_1 abstract view
.subckt sky130_fd_sc_hd__conb_1 VGND VNB VPB VPWR HI LO
.ends

* Black-box entry subcircuit for sky130_ef_sc_hd__decap_12 abstract view
.subckt sky130_ef_sc_hd__decap_12 VGND VNB VPB VPWR
.ends

* Black-box entry subcircuit for sky130_fd_sc_hd__and2b_2 abstract view
.subckt sky130_fd_sc_hd__and2b_2 A_N B VGND VNB VPB VPWR X
.ends

.subckt digital_pll VGND VPWR clockp[0] clockp[1] dco div[0] div[1] div[2] div[3]
+ div[4] enable ext_trim[0] ext_trim[10] ext_trim[11] ext_trim[12] ext_trim[13] ext_trim[14]
+ ext_trim[15] ext_trim[16] ext_trim[17] ext_trim[18] ext_trim[19] ext_trim[1] ext_trim[20]
+ ext_trim[21] ext_trim[22] ext_trim[23] ext_trim[24] ext_trim[25] ext_trim[2] ext_trim[3]
+ ext_trim[4] ext_trim[5] ext_trim[6] ext_trim[7] ext_trim[8] ext_trim[9] osc resetb
X_432_ _432_/A _432_/B VGND VGND VPWR VPWR _432_/Y sky130_fd_sc_hd__nor2_2
X_294_ _294_/A VGND VGND VPWR VPWR _385_/B sky130_fd_sc_hd__buf_2
X_363_ _459_/Q _363_/B _363_/C VGND VGND VPWR VPWR _387_/B sky130_fd_sc_hd__or3_2
Xringosc.dstage\[1\].id.delayint0 ringosc.dstage\[1\].id.delayen1/Z VGND VGND VPWR
+ VPWR ringosc.dstage\[1\].id.delayen0/A sky130_fd_sc_hd__clkinv_1
X_415_ _370_/X ext_trim[25] _390_/X _396_/C VGND VGND VPWR VPWR _415_/X sky130_fd_sc_hd__a22o_2
XANTENNA__247__B1 div[2] VGND VGND VPWR VPWR sky130_fd_sc_hd__diode_2
X_346_ _388_/A _392_/B VGND VGND VPWR VPWR _358_/B sky130_fd_sc_hd__nand2_2
X_277_ _447_/Q _445_/Q _337_/B VGND VGND VPWR VPWR _282_/C sky130_fd_sc_hd__and3_2
Xringosc.dstage\[11\].id.delayen1 ringosc.dstage\[11\].id.delayen1/A _414_/X VGND
+ VGND VPWR VPWR ringosc.dstage\[11\].id.delayen1/Z sky130_fd_sc_hd__einvp_2
XFILLER_2_132 VGND VGND VPWR VPWR sky130_fd_sc_hd__decap_4
XFILLER_0_57 VGND VGND VPWR VPWR sky130_fd_sc_hd__fill_1
X_329_ _332_/C _328_/X _337_/B VGND VGND VPWR VPWR _450_/D sky130_fd_sc_hd__a21oi_2
XFILLER_9_55 VGND VGND VPWR VPWR sky130_fd_sc_hd__fill_1
Xringosc.dstage\[10\].id.delayenb0 ringosc.dstage\[10\].id.delayenb1/A _373_/X VGND
+ VGND VPWR VPWR ringosc.dstage\[10\].id.delayen0/Z sky130_fd_sc_hd__einvn_8
XANTENNA__383__A2 ext_trim[14] VGND VGND VPWR VPWR sky130_fd_sc_hd__diode_2
Xringosc.dstage\[9\].id.delayenb0 ringosc.dstage\[9\].id.delayenb1/A _369_/X VGND
+ VGND VPWR VPWR ringosc.dstage\[9\].id.delayen0/Z sky130_fd_sc_hd__einvn_8
XANTENNA__365__A2 ext_trim[7] VGND VGND VPWR VPWR sky130_fd_sc_hd__diode_2
XFILLER_6_67 VGND VGND VPWR VPWR sky130_fd_sc_hd__fill_1
X_362_ _444_/A ext_trim[6] _403_/A _361_/X VGND VGND VPWR VPWR _362_/X sky130_fd_sc_hd__a22o_2
X_431_ _432_/A _432_/B VGND VGND VPWR VPWR _431_/Y sky130_fd_sc_hd__nor2_2
X_293_ _291_/B _315_/A _315_/B VGND VGND VPWR VPWR _313_/B sky130_fd_sc_hd__a21bo_2
XANTENNA__247__A1 div[3] VGND VGND VPWR VPWR sky130_fd_sc_hd__diode_2
X_276_ _462_/D _462_/Q VGND VGND VPWR VPWR _337_/B sky130_fd_sc_hd__xor2_2
X_345_ _413_/B _363_/C VGND VGND VPWR VPWR _392_/B sky130_fd_sc_hd__nor2_2
X_414_ _343_/X ext_trim[24] _413_/X VGND VGND VPWR VPWR _414_/X sky130_fd_sc_hd__a21o_2
X_259_ _241_/Y _242_/X div[3] VGND VGND VPWR VPWR _260_/B sky130_fd_sc_hd__a21o_2
X_328_ _328_/A _328_/B VGND VGND VPWR VPWR _328_/X sky130_fd_sc_hd__or2_2
XANTENNA__386__B1 ext_trim[15] VGND VGND VPWR VPWR sky130_fd_sc_hd__diode_2
Xringosc.dstage\[10\].id.delayenb1 ringosc.dstage\[10\].id.delayenb1/A _412_/X VGND
+ VGND VPWR VPWR ringosc.dstage\[10\].id.delayen1/Z sky130_fd_sc_hd__einvn_4
Xringosc.dstage\[9\].id.delayenb1 ringosc.dstage\[9\].id.delayenb1/A _411_/X VGND
+ VGND VPWR VPWR ringosc.dstage\[9\].id.delayen1/Z sky130_fd_sc_hd__einvn_4
XANTENNA__228__A div[1] VGND VGND VPWR VPWR sky130_fd_sc_hd__diode_2
X_430_ _432_/A _432_/B VGND VGND VPWR VPWR _430_/Y sky130_fd_sc_hd__nor2_2
X_292_ _454_/Q _453_/Q VGND VGND VPWR VPWR _315_/A sky130_fd_sc_hd__or2_2
X_361_ _410_/A _408_/B _361_/C VGND VGND VPWR VPWR _361_/X sky130_fd_sc_hd__or3_2
X_275_ _454_/Q _453_/Q _291_/B _341_/B VGND VGND VPWR VPWR _282_/B sky130_fd_sc_hd__or4bb_2
X_344_ _459_/Q _363_/B _344_/C VGND VGND VPWR VPWR _374_/B sky130_fd_sc_hd__or3_2
X_413_ _433_/A _413_/B _413_/C VGND VGND VPWR VPWR _413_/X sky130_fd_sc_hd__and3b_2
Xringosc.dstage\[4\].id.delayen0 ringosc.dstage\[4\].id.delayen0/A _357_/X VGND VGND
+ VPWR VPWR ringosc.dstage\[4\].id.delayen0/Z sky130_fd_sc_hd__einvp_2
XFILLER_3_3 VGND VGND VPWR VPWR sky130_fd_sc_hd__fill_1
X_327_ _449_/Q _332_/A _450_/Q VGND VGND VPWR VPWR _328_/B sky130_fd_sc_hd__a21oi_2
X_258_ _256_/Y _257_/X div[4] VGND VGND VPWR VPWR _281_/B sky130_fd_sc_hd__o21a_2
XANTENNA__416__A enable VGND VGND VPWR VPWR sky130_fd_sc_hd__diode_2
XFILLER_9_57 VGND VGND VPWR VPWR sky130_fd_sc_hd__decap_4
Xringosc.dstage\[9\].id.delaybuf0 ringosc.dstage\[8\].id.delayen0/Z VGND VGND VPWR
+ VPWR ringosc.dstage\[9\].id.delayenb1/A sky130_fd_sc_hd__clkbuf_2
Xringosc.dstage\[10\].id.delaybuf0 ringosc.dstage\[9\].id.delayen0/Z VGND VGND VPWR
+ VPWR ringosc.dstage\[10\].id.delayenb1/A sky130_fd_sc_hd__clkbuf_2
Xringosc.dstage\[5\].id.delayenb0 ringosc.dstage\[5\].id.delayenb1/A _360_/X VGND
+ VGND VPWR VPWR ringosc.ibufp10/A sky130_fd_sc_hd__einvn_8
X_360_ _343_/X ext_trim[5] _359_/X VGND VGND VPWR VPWR _360_/X sky130_fd_sc_hd__a21o_2
XANTENNA__259__B1 div[3] VGND VGND VPWR VPWR sky130_fd_sc_hd__diode_2
X_291_ _408_/B _291_/B VGND VGND VPWR VPWR _313_/A sky130_fd_sc_hd__xnor2_2
X_412_ _343_/X ext_trim[23] _384_/Y VGND VGND VPWR VPWR _412_/X sky130_fd_sc_hd__a21o_2
X_274_ _294_/A _361_/C VGND VGND VPWR VPWR _341_/B sky130_fd_sc_hd__nor2_2
X_343_ _433_/A VGND VGND VPWR VPWR _343_/X sky130_fd_sc_hd__buf_2
Xringosc.dstage\[4\].id.delayen1 ringosc.dstage\[4\].id.delayen1/A _397_/X VGND VGND
+ VPWR VPWR ringosc.dstage\[4\].id.delayen1/Z sky130_fd_sc_hd__einvp_2
XFILLER_0_27 VGND VGND VPWR VPWR sky130_fd_sc_hd__fill_1
X_257_ _261_/A _261_/B VGND VGND VPWR VPWR _257_/X sky130_fd_sc_hd__and2_2
XANTENNA__416__B resetb VGND VGND VPWR VPWR sky130_fd_sc_hd__diode_2
X_326_ _452_/Q _326_/B VGND VGND VPWR VPWR _332_/C sky130_fd_sc_hd__nand2_2
XANTENNA__377__A2 ext_trim[12] VGND VGND VPWR VPWR sky130_fd_sc_hd__diode_2
X_309_ _455_/Q _316_/A VGND VGND VPWR VPWR _309_/Y sky130_fd_sc_hd__nor2_2
Xringosc.dstage\[9\].id.delaybuf1 ringosc.dstage\[9\].id.delayenb1/A VGND VGND VPWR
+ VPWR ringosc.dstage\[9\].id.delayen1/A sky130_fd_sc_hd__clkbuf_1
Xringosc.dstage\[10\].id.delaybuf1 ringosc.dstage\[10\].id.delayenb1/A VGND VGND VPWR
+ VPWR ringosc.dstage\[10\].id.delayen1/A sky130_fd_sc_hd__clkbuf_1
Xringosc.dstage\[5\].id.delayenb1 ringosc.dstage\[5\].id.delayenb1/A _398_/X VGND
+ VGND VPWR VPWR ringosc.dstage\[5\].id.delayen1/Z sky130_fd_sc_hd__einvn_4
XFILLER_16_112 VGND VGND VPWR VPWR sky130_fd_sc_hd__fill_1
XFILLER_11_3 VGND VGND VPWR VPWR sky130_fd_sc_hd__fill_2
X_290_ _455_/Q VGND VGND VPWR VPWR _408_/B sky130_fd_sc_hd__inv_2
X_411_ _394_/X _396_/X _410_/X ext_trim[22] _370_/X VGND VGND VPWR VPWR _411_/X sky130_fd_sc_hd__a32o_2
X_342_ ext_trim[0] _423_/A _403_/A VGND VGND VPWR VPWR _342_/X sky130_fd_sc_hd__a21o_2
X_273_ _459_/Q _388_/B VGND VGND VPWR VPWR _361_/C sky130_fd_sc_hd__or2_2
X_325_ _451_/Q _328_/A _324_/X _332_/B VGND VGND VPWR VPWR _451_/D sky130_fd_sc_hd__o211a_2
X_256_ _261_/A _261_/B VGND VGND VPWR VPWR _256_/Y sky130_fd_sc_hd__nor2_2
X_239_ _451_/Q _466_/Q VGND VGND VPWR VPWR _240_/B sky130_fd_sc_hd__and2_2
X_308_ _456_/Q VGND VGND VPWR VPWR _371_/A sky130_fd_sc_hd__inv_2
Xringosc.dstage\[5\].id.delaybuf0 ringosc.dstage\[4\].id.delayen0/Z VGND VGND VPWR
+ VPWR ringosc.dstage\[5\].id.delayenb1/A sky130_fd_sc_hd__clkbuf_2
X_410_ _410_/A _410_/B VGND VGND VPWR VPWR _410_/X sky130_fd_sc_hd__or2_2
Xringosc.dstage\[1\].id.delayenb0 ringosc.dstage\[1\].id.delayenb1/A _351_/X VGND
+ VGND VPWR VPWR ringosc.dstage\[1\].id.delayen0/Z sky130_fd_sc_hd__einvn_8
X_272_ _458_/Q _457_/Q VGND VGND VPWR VPWR _388_/B sky130_fd_sc_hd__or2_2
X_341_ dco _341_/B VGND VGND VPWR VPWR _403_/A sky130_fd_sc_hd__nor2_2
Xringosc.dstage\[8\].id.delayint0 ringosc.dstage\[8\].id.delayen1/Z VGND VGND VPWR
+ VPWR ringosc.dstage\[8\].id.delayen0/A sky130_fd_sc_hd__clkinv_1
XFILLER_5_134 VGND VGND VPWR VPWR sky130_fd_sc_hd__fill_2
X_255_ _254_/Y _241_/A _241_/B _240_/B VGND VGND VPWR VPWR _261_/B sky130_fd_sc_hd__a31o_2
X_324_ _452_/Q _326_/B VGND VGND VPWR VPWR _324_/X sky130_fd_sc_hd__or2b_2
X_238_ _451_/Q _466_/Q VGND VGND VPWR VPWR _254_/A sky130_fd_sc_hd__nor2_2
X_307_ _307_/A VGND VGND VPWR VPWR _457_/D sky130_fd_sc_hd__buf_2
XFILLER_15_26 VGND VGND VPWR VPWR sky130_fd_sc_hd__fill_1
XPHY_0 VGND VGND VPWR VPWR sky130_fd_sc_hd__decap_3
XANTENNA__407__B1 ext_trim[20] VGND VGND VPWR VPWR sky130_fd_sc_hd__diode_2
Xringosc.dstage\[5\].id.delaybuf1 ringosc.dstage\[5\].id.delayenb1/A VGND VGND VPWR
+ VPWR ringosc.dstage\[5\].id.delayen1/A sky130_fd_sc_hd__clkbuf_1
Xringosc.dstage\[1\].id.delayenb1 ringosc.dstage\[1\].id.delayenb1/A _383_/X VGND
+ VGND VPWR VPWR ringosc.dstage\[1\].id.delayen1/Z sky130_fd_sc_hd__einvn_4
XFILLER_12_27 VGND VGND VPWR VPWR sky130_fd_sc_hd__fill_1
X_271_ _456_/Q _455_/Q VGND VGND VPWR VPWR _294_/A sky130_fd_sc_hd__or2_2
X_340_ _433_/A VGND VGND VPWR VPWR _423_/A sky130_fd_sc_hd__buf_2
XFILLER_4_94 VGND VGND VPWR VPWR sky130_fd_sc_hd__fill_1
XANTENNA__398__A2 ext_trim[18] VGND VGND VPWR VPWR sky130_fd_sc_hd__diode_2
Xringosc.dstage\[1\].id.delayen0 ringosc.dstage\[1\].id.delayen0/A _351_/X VGND VGND
+ VPWR VPWR ringosc.dstage\[1\].id.delayen0/Z sky130_fd_sc_hd__einvp_2
XANTENNA__372__A ext_trim[10] VGND VGND VPWR VPWR sky130_fd_sc_hd__diode_2
X_254_ _254_/A VGND VGND VPWR VPWR _254_/Y sky130_fd_sc_hd__inv_2
X_323_ _452_/Q _326_/B _332_/B VGND VGND VPWR VPWR _452_/D sky130_fd_sc_hd__o21a_2
X_237_ _227_/A _227_/B _245_/B _236_/X VGND VGND VPWR VPWR _241_/B sky130_fd_sc_hd__a211o_2
X_306_ _344_/C _305_/X _319_/B VGND VGND VPWR VPWR _307_/A sky130_fd_sc_hd__mux2_2
XPHY_1 VGND VGND VPWR VPWR sky130_fd_sc_hd__decap_3
X_270_ _388_/A _363_/C _315_/B _289_/B VGND VGND VPWR VPWR _270_/X sky130_fd_sc_hd__or4_2
X_399_ _367_/X ext_trim[19] _390_/A _403_/B VGND VGND VPWR VPWR _399_/X sky130_fd_sc_hd__a22o_2
Xringosc.dstage\[1\].id.delayen1 ringosc.dstage\[1\].id.delayen1/A _383_/X VGND VGND
+ VPWR VPWR ringosc.dstage\[1\].id.delayen1/Z sky130_fd_sc_hd__einvp_2
XFILLER_4_62 VGND VGND VPWR VPWR sky130_fd_sc_hd__fill_1
X_322_ _451_/Q _328_/A VGND VGND VPWR VPWR _326_/B sky130_fd_sc_hd__and2_2
Xringosc.dstage\[1\].id.delaybuf0 ringosc.dstage\[0\].id.delayen0/Z VGND VGND VPWR
+ VPWR ringosc.dstage\[1\].id.delayenb1/A sky130_fd_sc_hd__clkbuf_2
Xringosc.dstage\[4\].id.delayint0 ringosc.dstage\[4\].id.delayen1/Z VGND VGND VPWR
+ VPWR ringosc.dstage\[4\].id.delayen0/A sky130_fd_sc_hd__clkinv_1
X_253_ _253_/A _253_/B VGND VGND VPWR VPWR _261_/A sky130_fd_sc_hd__and2_2
X_236_ _449_/Q _464_/Q VGND VGND VPWR VPWR _236_/X sky130_fd_sc_hd__and2_2
X_305_ _305_/A _305_/B VGND VGND VPWR VPWR _305_/X sky130_fd_sc_hd__xor2_2
XFILLER_10_83 VGND VGND VPWR VPWR sky130_fd_sc_hd__fill_1
X_219_ _448_/Q VGND VGND VPWR VPWR _332_/A sky130_fd_sc_hd__buf_2
Xringosc.dstage\[9\].id.delayen0 ringosc.dstage\[9\].id.delayen0/A _369_/X VGND VGND
+ VPWR VPWR ringosc.dstage\[9\].id.delayen0/Z sky130_fd_sc_hd__einvp_2
XPHY_2 VGND VGND VPWR VPWR sky130_fd_sc_hd__decap_3
XFILLER_16_93 VGND VGND VPWR VPWR sky130_fd_sc_hd__fill_1
X_398_ _367_/X ext_trim[18] _388_/B _384_/Y VGND VGND VPWR VPWR _398_/X sky130_fd_sc_hd__a22o_2
X_467_ _467_/CLK _467_/D _444_/Y VGND VGND VPWR VPWR _467_/Q sky130_fd_sc_hd__dfrtp_2
Xringosc.dstage\[1\].id.delaybuf1 ringosc.dstage\[1\].id.delayenb1/A VGND VGND VPWR
+ VPWR ringosc.dstage\[1\].id.delayen1/A sky130_fd_sc_hd__clkbuf_1
X_321_ _450_/Q _449_/Q _332_/A VGND VGND VPWR VPWR _328_/A sky130_fd_sc_hd__and3_2
X_252_ _452_/Q _467_/Q VGND VGND VPWR VPWR _253_/B sky130_fd_sc_hd__or2_2
XFILLER_13_50 VGND VGND VPWR VPWR sky130_fd_sc_hd__fill_1
X_304_ _304_/A VGND VGND VPWR VPWR _458_/D sky130_fd_sc_hd__buf_2
X_235_ _450_/Q _465_/Q VGND VGND VPWR VPWR _245_/B sky130_fd_sc_hd__and2_2
XFILLER_20_29 VGND VGND VPWR VPWR sky130_fd_sc_hd__fill_1
X_218_ _218_/A VGND VGND VPWR VPWR _464_/D sky130_fd_sc_hd__buf_2
Xringosc.dstage\[9\].id.delayen1 ringosc.dstage\[9\].id.delayen1/A _411_/X VGND VGND
+ VPWR VPWR ringosc.dstage\[9\].id.delayen1/Z sky130_fd_sc_hd__einvp_2
XPHY_3 VGND VGND VPWR VPWR sky130_fd_sc_hd__decap_3
XFILLER_5_105 VGND VGND VPWR VPWR sky130_fd_sc_hd__fill_2
X_397_ _393_/X _394_/X _396_/X ext_trim[17] _370_/X VGND VGND VPWR VPWR _397_/X sky130_fd_sc_hd__a32o_2
X_466_ _467_/CLK _466_/D _443_/Y VGND VGND VPWR VPWR _466_/Q sky130_fd_sc_hd__dfrtp_2
X_320_ _453_/Q _282_/X _319_/Y VGND VGND VPWR VPWR _453_/D sky130_fd_sc_hd__o21a_2
X_251_ _452_/Q _467_/Q VGND VGND VPWR VPWR _253_/A sky130_fd_sc_hd__nand2_2
XFILLER_13_84 VGND VGND VPWR VPWR sky130_fd_sc_hd__fill_1
X_449_ _467_/CLK _449_/D _422_/Y VGND VGND VPWR VPWR _449_/Q sky130_fd_sc_hd__dfrtp_2
X_234_ _450_/Q _465_/Q VGND VGND VPWR VPWR _241_/A sky130_fd_sc_hd__or2_2
X_303_ _413_/B _302_/Y _319_/B VGND VGND VPWR VPWR _304_/A sky130_fd_sc_hd__mux2_2
Xringosc.iss.reseten0 ringosc.iss.const1/HI _423_/B VGND VGND VPWR VPWR ringosc.ibufp00/A
+ sky130_fd_sc_hd__einvp_1
Xringosc.dstage\[0\].id.delayint0 ringosc.dstage\[0\].id.delayen1/Z VGND VGND VPWR
+ VPWR ringosc.dstage\[0\].id.delayen0/A sky130_fd_sc_hd__clkinv_1
XFILLER_19_50 VGND VGND VPWR VPWR sky130_fd_sc_hd__fill_1
X_217_ _449_/Q _464_/Q _332_/B VGND VGND VPWR VPWR _218_/A sky130_fd_sc_hd__mux2_2
XFILLER_10_52 VGND VGND VPWR VPWR sky130_fd_sc_hd__fill_1
XPHY_4 VGND VGND VPWR VPWR sky130_fd_sc_hd__decap_3
XFILLER_7_64 VGND VGND VPWR VPWR sky130_fd_sc_hd__decap_3
Xringosc.dstage\[8\].id.delayenb0 ringosc.dstage\[8\].id.delayenb1/A _366_/X VGND
+ VGND VPWR VPWR ringosc.dstage\[8\].id.delayen0/Z sky130_fd_sc_hd__einvn_8
X_396_ _396_/A _396_/B _396_/C VGND VGND VPWR VPWR _396_/X sky130_fd_sc_hd__and3_2
X_465_ _467_/CLK _465_/D _442_/Y VGND VGND VPWR VPWR _465_/Q sky130_fd_sc_hd__dfrtp_2
X_250_ _233_/A _280_/B _278_/A _278_/B _278_/C VGND VGND VPWR VPWR _250_/Y sky130_fd_sc_hd__a2111oi_2
X_379_ _367_/X ext_trim[13] _390_/A _378_/X VGND VGND VPWR VPWR _379_/X sky130_fd_sc_hd__a22o_2
X_448_ _467_/CLK _448_/D _421_/Y VGND VGND VPWR VPWR _448_/Q sky130_fd_sc_hd__dfrtp_2
X_233_ _233_/A _233_/B VGND VGND VPWR VPWR _280_/B sky130_fd_sc_hd__nand2_2
X_302_ _302_/A _302_/B VGND VGND VPWR VPWR _302_/Y sky130_fd_sc_hd__xnor2_2
XFILLER_18_3 VGND VGND VPWR VPWR sky130_fd_sc_hd__fill_1
X_216_ _216_/A VGND VGND VPWR VPWR _465_/D sky130_fd_sc_hd__buf_2
Xringosc.iss.delayint0 ringosc.iss.delayen1/Z VGND VGND VPWR VPWR ringosc.iss.delayen0/A
+ sky130_fd_sc_hd__clkinv_1
XPHY_5 VGND VGND VPWR VPWR sky130_fd_sc_hd__decap_3
X_464_ _467_/CLK _464_/D _441_/Y VGND VGND VPWR VPWR _464_/Q sky130_fd_sc_hd__dfrtp_2
Xringosc.dstage\[8\].id.delayenb1 ringosc.dstage\[8\].id.delayenb1/A _409_/X VGND
+ VGND VPWR VPWR ringosc.dstage\[8\].id.delayen1/Z sky130_fd_sc_hd__einvn_4
X_395_ _395_/A _408_/C VGND VGND VPWR VPWR _396_/C sky130_fd_sc_hd__or2_2
X_378_ _410_/A _387_/B VGND VGND VPWR VPWR _378_/X sky130_fd_sc_hd__or2_2
X_447_ _467_/CLK _447_/D _420_/Y VGND VGND VPWR VPWR _447_/Q sky130_fd_sc_hd__dfrtp_2
X_232_ div[1] _228_/B _279_/B div[0] VGND VGND VPWR VPWR _233_/B sky130_fd_sc_hd__o22a_2
X_301_ _305_/A _305_/B _288_/B VGND VGND VPWR VPWR _302_/B sky130_fd_sc_hd__a21oi_2
XANTENNA__391__A2 ext_trim[16] VGND VGND VPWR VPWR sky130_fd_sc_hd__diode_2
Xringosc.dstage\[6\].id.delayen0 ringosc.dstage\[6\].id.delayen0/A _362_/X VGND VGND
+ VPWR VPWR ringosc.dstage\[6\].id.delayen0/Z sky130_fd_sc_hd__einvp_2
X_215_ _450_/Q _465_/Q _332_/B VGND VGND VPWR VPWR _216_/A sky130_fd_sc_hd__mux2_2
XFILLER_21_75 VGND VGND VPWR VPWR sky130_fd_sc_hd__fill_1
XPHY_6 VGND VGND VPWR VPWR sky130_fd_sc_hd__decap_3
XFILLER_7_88 VGND VGND VPWR VPWR sky130_fd_sc_hd__fill_1
X_394_ _371_/A _374_/B _408_/C _289_/B _403_/B VGND VGND VPWR VPWR _394_/X sky130_fd_sc_hd__o221a_2
X_463_ _467_/CLK _463_/D _440_/Y VGND VGND VPWR VPWR _463_/Q sky130_fd_sc_hd__dfrtp_2
XFILLER_4_78 VGND VGND VPWR VPWR sky130_fd_sc_hd__fill_1
X_377_ _367_/X ext_trim[12] _350_/C _376_/X VGND VGND VPWR VPWR _377_/X sky130_fd_sc_hd__a22o_2
X_446_ _467_/CLK _446_/D _419_/Y VGND VGND VPWR VPWR _446_/Q sky130_fd_sc_hd__dfrtp_2
Xringosc.dstage\[8\].id.delaybuf0 ringosc.dstage\[7\].id.delayen0/Z VGND VGND VPWR
+ VPWR ringosc.dstage\[8\].id.delayenb1/A sky130_fd_sc_hd__clkbuf_2
Xringosc.dstage\[4\].id.delayenb0 ringosc.dstage\[4\].id.delayenb1/A _357_/X VGND
+ VGND VPWR VPWR ringosc.dstage\[4\].id.delayen0/Z sky130_fd_sc_hd__einvn_8
X_231_ _231_/A _231_/B VGND VGND VPWR VPWR _279_/B sky130_fd_sc_hd__nand2_2
X_300_ _413_/C _319_/B _298_/X _299_/Y VGND VGND VPWR VPWR _459_/D sky130_fd_sc_hd__o22a_2
XFILLER_1_79 VGND VGND VPWR VPWR sky130_fd_sc_hd__decap_3
XFILLER_1_57 VGND VGND VPWR VPWR sky130_fd_sc_hd__fill_1
X_429_ _432_/A _432_/B VGND VGND VPWR VPWR _429_/Y sky130_fd_sc_hd__nor2_2
Xringosc.dstage\[10\].id.delayen0 ringosc.dstage\[10\].id.delayen0/A _373_/X VGND
+ VGND VPWR VPWR ringosc.dstage\[10\].id.delayen0/Z sky130_fd_sc_hd__einvp_2
XTAP_90 VGND VPWR sky130_fd_sc_hd__tapvpwrvgnd_1
XFILLER_19_20 VGND VGND VPWR VPWR sky130_fd_sc_hd__fill_1
Xringosc.dstage\[6\].id.delayen1 ringosc.dstage\[6\].id.delayen1/A _399_/X VGND VGND
+ VPWR VPWR ringosc.dstage\[6\].id.delayen1/Z sky130_fd_sc_hd__einvp_2
X_214_ _214_/A VGND VGND VPWR VPWR _466_/D sky130_fd_sc_hd__buf_2
XPHY_7 VGND VGND VPWR VPWR sky130_fd_sc_hd__decap_3
XFILLER_21_135 VGND VGND VPWR VPWR sky130_fd_sc_hd__fill_1
XFILLER_12_135 VGND VGND VPWR VPWR sky130_fd_sc_hd__fill_1
X_393_ _393_/A _410_/B VGND VGND VPWR VPWR _393_/X sky130_fd_sc_hd__or2_2
X_462_ _467_/CLK _462_/D _439_/Y VGND VGND VPWR VPWR _462_/Q sky130_fd_sc_hd__dfrtp_2
XFILLER_1_134 VGND VGND VPWR VPWR sky130_fd_sc_hd__fill_2
XFILLER_13_55 VGND VGND VPWR VPWR sky130_fd_sc_hd__fill_1
Xringosc.dstage\[8\].id.delaybuf1 ringosc.dstage\[8\].id.delayenb1/A VGND VGND VPWR
+ VPWR ringosc.dstage\[8\].id.delayen1/A sky130_fd_sc_hd__clkbuf_1
X_376_ _410_/A _376_/B VGND VGND VPWR VPWR _376_/X sky130_fd_sc_hd__or2_2
Xringosc.dstage\[4\].id.delayenb1 ringosc.dstage\[4\].id.delayenb1/A _397_/X VGND
+ VGND VPWR VPWR ringosc.dstage\[4\].id.delayen1/Z sky130_fd_sc_hd__einvn_4
X_445_ _467_/CLK _445_/D _418_/Y VGND VGND VPWR VPWR _445_/Q sky130_fd_sc_hd__dfrtp_2
X_230_ _332_/A _463_/Q VGND VGND VPWR VPWR _231_/B sky130_fd_sc_hd__or2_2
X_359_ _395_/A _376_/B _350_/C _358_/X VGND VGND VPWR VPWR _359_/X sky130_fd_sc_hd__o211a_2
X_428_ _432_/A _432_/B VGND VGND VPWR VPWR _428_/Y sky130_fd_sc_hd__nor2_2
Xringosc.dstage\[10\].id.delayen1 ringosc.dstage\[10\].id.delayen1/A _412_/X VGND
+ VGND VPWR VPWR ringosc.dstage\[10\].id.delayen1/Z sky130_fd_sc_hd__einvp_2
XTAP_91 VGND VPWR sky130_fd_sc_hd__tapvpwrvgnd_1
XTAP_80 VGND VPWR sky130_fd_sc_hd__tapvpwrvgnd_1
X_213_ _451_/Q _466_/Q _332_/B VGND VGND VPWR VPWR _214_/A sky130_fd_sc_hd__mux2_2
XFILLER_16_3 VGND VGND VPWR VPWR sky130_fd_sc_hd__fill_1
XPHY_8 VGND VGND VPWR VPWR sky130_fd_sc_hd__decap_3
XFILLER_7_57 VGND VGND VPWR VPWR sky130_fd_sc_hd__fill_2
XANTENNA__258__B1 div[4] VGND VGND VPWR VPWR sky130_fd_sc_hd__diode_2
X_392_ _413_/C _392_/B VGND VGND VPWR VPWR _410_/B sky130_fd_sc_hd__nand2_2
X_461_ _467_/CLK _461_/D _438_/Y VGND VGND VPWR VPWR _462_/D sky130_fd_sc_hd__dfrtp_2
X_375_ _376_/B _350_/C _374_/X ext_trim[11] _370_/X VGND VGND VPWR VPWR _375_/X sky130_fd_sc_hd__a32o_2
X_444_ _444_/A _444_/B VGND VGND VPWR VPWR _444_/Y sky130_fd_sc_hd__nor2_2
X_358_ _385_/B _358_/B VGND VGND VPWR VPWR _358_/X sky130_fd_sc_hd__or2_2
X_427_ _432_/A _432_/B VGND VGND VPWR VPWR _427_/Y sky130_fd_sc_hd__nor2_2
XTAP_92 VGND VPWR sky130_fd_sc_hd__tapvpwrvgnd_1
Xringosc.dstage\[4\].id.delaybuf0 ringosc.dstage\[3\].id.delayen0/Z VGND VGND VPWR
+ VPWR ringosc.dstage\[4\].id.delayenb1/A sky130_fd_sc_hd__clkbuf_2
XTAP_81 VGND VPWR sky130_fd_sc_hd__tapvpwrvgnd_1
XTAP_70 VGND VPWR sky130_fd_sc_hd__tapvpwrvgnd_1
X_289_ _294_/A _289_/B VGND VGND VPWR VPWR _395_/A sky130_fd_sc_hd__nand2_2
Xringosc.dstage\[7\].id.delayint0 ringosc.dstage\[7\].id.delayen1/Z VGND VGND VPWR
+ VPWR ringosc.dstage\[7\].id.delayen0/A sky130_fd_sc_hd__clkinv_1
X_212_ _212_/A VGND VGND VPWR VPWR _467_/D sky130_fd_sc_hd__buf_2
XFILLER_10_79 VGND VGND VPWR VPWR sky130_fd_sc_hd__decap_4
Xringosc.dstage\[0\].id.delayenb0 ringosc.dstage\[0\].id.delayenb1/A _342_/X VGND
+ VGND VPWR VPWR ringosc.dstage\[0\].id.delayen0/Z sky130_fd_sc_hd__einvn_8
XPHY_9 VGND VGND VPWR VPWR sky130_fd_sc_hd__decap_3
X_391_ _343_/X ext_trim[16] _390_/X VGND VGND VPWR VPWR _391_/X sky130_fd_sc_hd__a21o_2
X_460_ _467_/CLK osc _437_/Y VGND VGND VPWR VPWR _461_/D sky130_fd_sc_hd__dfrtp_2
XFILLER_4_133 VGND VGND VPWR VPWR sky130_fd_sc_hd__decap_3
XANTENNA__397__B1 ext_trim[17] VGND VGND VPWR VPWR sky130_fd_sc_hd__diode_2
X_443_ _444_/A _444_/B VGND VGND VPWR VPWR _443_/Y sky130_fd_sc_hd__nor2_2
X_374_ _393_/A _374_/B VGND VGND VPWR VPWR _374_/X sky130_fd_sc_hd__or2_2
XFILLER_5_91 VGND VGND VPWR VPWR sky130_fd_sc_hd__fill_1
XTAP_93 VGND VPWR sky130_fd_sc_hd__tapvpwrvgnd_1
X_357_ _343_/X ext_trim[4] _396_/A VGND VGND VPWR VPWR _357_/X sky130_fd_sc_hd__a21o_2
Xringosc.dstage\[3\].id.delayen0 ringosc.dstage\[3\].id.delayen0/A _354_/X VGND VGND
+ VPWR VPWR ringosc.dstage\[3\].id.delayen0/Z sky130_fd_sc_hd__einvp_2
XTAP_82 VGND VPWR sky130_fd_sc_hd__tapvpwrvgnd_1
X_288_ _288_/A _288_/B VGND VGND VPWR VPWR _305_/A sky130_fd_sc_hd__nor2_2
XTAP_60 VGND VPWR sky130_fd_sc_hd__tapvpwrvgnd_1
X_426_ _432_/A _432_/B VGND VGND VPWR VPWR _426_/Y sky130_fd_sc_hd__nor2_2
XTAP_71 VGND VPWR sky130_fd_sc_hd__tapvpwrvgnd_1
Xringosc.dstage\[4\].id.delaybuf1 ringosc.dstage\[4\].id.delayenb1/A VGND VGND VPWR
+ VPWR ringosc.dstage\[4\].id.delayen1/A sky130_fd_sc_hd__clkbuf_1
X_211_ _452_/Q _467_/Q _332_/B VGND VGND VPWR VPWR _212_/A sky130_fd_sc_hd__mux2_2
Xringosc.dstage\[0\].id.delayenb1 ringosc.dstage\[0\].id.delayenb1/A _379_/X VGND
+ VGND VPWR VPWR ringosc.dstage\[0\].id.delayen1/Z sky130_fd_sc_hd__einvn_4
X_409_ _367_/X ext_trim[21] _390_/X _408_/X VGND VGND VPWR VPWR _409_/X sky130_fd_sc_hd__a22o_2
Xringosc.iss.delayenb0 ringosc.iss.delayenb1/A ringosc.iss.ctrlen0/X VGND VGND VPWR
+ VPWR ringosc.ibufp00/A sky130_fd_sc_hd__einvn_8
XFILLER_21_3 VGND VGND VPWR VPWR sky130_fd_sc_hd__fill_1
XANTENNA__412__A2 ext_trim[23] VGND VGND VPWR VPWR sky130_fd_sc_hd__diode_2
X_390_ _390_/A _403_/B _396_/B VGND VGND VPWR VPWR _390_/X sky130_fd_sc_hd__and3_2
XFILLER_4_101 VGND VGND VPWR VPWR sky130_fd_sc_hd__fill_1
X_373_ _370_/X _361_/C _393_/A _372_/X VGND VGND VPWR VPWR _373_/X sky130_fd_sc_hd__o31a_2
X_442_ _444_/A _444_/B VGND VGND VPWR VPWR _442_/Y sky130_fd_sc_hd__nor2_2
X_425_ _444_/B VGND VGND VPWR VPWR _432_/B sky130_fd_sc_hd__buf_2
X_287_ _344_/C _291_/B VGND VGND VPWR VPWR _288_/B sky130_fd_sc_hd__and2_2
X_356_ _410_/A _374_/B _358_/B _349_/A VGND VGND VPWR VPWR _396_/A sky130_fd_sc_hd__o211a_2
XTAP_94 VGND VPWR sky130_fd_sc_hd__tapvpwrvgnd_1
XFILLER_19_79 VGND VGND VPWR VPWR sky130_fd_sc_hd__fill_1
XFILLER_19_57 VGND VGND VPWR VPWR sky130_fd_sc_hd__fill_1
XTAP_83 VGND VPWR sky130_fd_sc_hd__tapvpwrvgnd_1