* NGSPICE file created from digital_pll.ext - technology: sky130A

* Black-box entry subcircuit for sky130_fd_sc_hd__and3_2 abstract view
.subckt sky130_fd_sc_hd__and3_2 A B C VGND VNB VPB VPWR X
.ends

* Black-box entry subcircuit for sky130_fd_sc_hd__nor2_2 abstract view
.subckt sky130_fd_sc_hd__nor2_2 A B VGND VNB VPB VPWR Y
.ends

* Black-box entry subcircuit for sky130_fd_sc_hd__clkinv_1 abstract view
.subckt sky130_fd_sc_hd__clkinv_1 A VGND VNB VPB VPWR Y
.ends

* Black-box entry subcircuit for sky130_fd_sc_hd__a32o_2 abstract view
.subckt sky130_fd_sc_hd__a32o_2 A1 A2 A3 B1 B2 VGND VNB VPB VPWR X
.ends

* Black-box entry subcircuit for sky130_fd_sc_hd__o211a_2 abstract view
.subckt sky130_fd_sc_hd__o211a_2 A1 A2 B1 C1 VGND VNB VPB VPWR X
.ends

* Black-box entry subcircuit for sky130_fd_sc_hd__xor2_2 abstract view
.subckt sky130_fd_sc_hd__xor2_2 A B VGND VNB VPB VPWR X
.ends

* Black-box entry subcircuit for sky130_fd_sc_hd__a21o_2 abstract view
.subckt sky130_fd_sc_hd__a21o_2 A1 A2 B1 VGND VNB VPB VPWR X
.ends

* Black-box entry subcircuit for sky130_fd_sc_hd__fill_1 abstract view
.subckt sky130_fd_sc_hd__fill_1 VGND VNB VPB VPWR
.ends

* Black-box entry subcircuit for sky130_fd_sc_hd__einvp_2 abstract view
.subckt sky130_fd_sc_hd__einvp_2 A TE VGND VNB VPB VPWR Z
.ends

* Black-box entry subcircuit for sky130_fd_sc_hd__einvn_8 abstract view
.subckt sky130_fd_sc_hd__einvn_8 A TE_B VGND VNB VPB VPWR Z
.ends

* Black-box entry subcircuit for sky130_fd_sc_hd__and2b_2 abstract view
.subckt sky130_fd_sc_hd__and2b_2 A_N B VGND VNB VPB VPWR X
.ends

* Black-box entry subcircuit for sky130_fd_sc_hd__nand2_2 abstract view
.subckt sky130_fd_sc_hd__nand2_2 A B VGND VNB VPB VPWR Y
.ends

* Black-box entry subcircuit for sky130_fd_sc_hd__nand2b_2 abstract view
.subckt sky130_fd_sc_hd__nand2b_2 A_N B VGND VNB VPB VPWR Y
.ends

* Black-box entry subcircuit for sky130_fd_sc_hd__or2_2 abstract view
.subckt sky130_fd_sc_hd__or2_2 A B VGND VNB VPB VPWR X
.ends

* Black-box entry subcircuit for sky130_fd_sc_hd__xnor2_2 abstract view
.subckt sky130_fd_sc_hd__xnor2_2 A B VGND VNB VPB VPWR Y
.ends

* Black-box entry subcircuit for sky130_fd_sc_hd__einvn_4 abstract view
.subckt sky130_fd_sc_hd__einvn_4 A TE_B VGND VNB VPB VPWR Z
.ends

* Black-box entry subcircuit for sky130_fd_sc_hd__fill_2 abstract view
.subckt sky130_fd_sc_hd__fill_2 VGND VNB VPB VPWR
.ends

* Black-box entry subcircuit for sky130_fd_sc_hd__o21ai_2 abstract view
.subckt sky130_fd_sc_hd__o21ai_2 A1 A2 B1 VGND VNB VPB VPWR Y
.ends

* Black-box entry subcircuit for sky130_fd_sc_hd__o21a_2 abstract view
.subckt sky130_fd_sc_hd__o21a_2 A1 A2 B1 VGND VNB VPB VPWR X
.ends

* Black-box entry subcircuit for sky130_fd_sc_hd__a21oi_2 abstract view
.subckt sky130_fd_sc_hd__a21oi_2 A1 A2 B1 VGND VNB VPB VPWR Y
.ends

* Black-box entry subcircuit for sky130_fd_sc_hd__diode_2 abstract view
.subckt sky130_fd_sc_hd__diode_2 DIODE VGND VNB VPB VPWR
.ends

* Black-box entry subcircuit for sky130_fd_sc_hd__clkbuf_2 abstract view
.subckt sky130_fd_sc_hd__clkbuf_2 A VGND VNB VPB VPWR X
.ends

* Black-box entry subcircuit for sky130_fd_sc_hd__a22o_2 abstract view
.subckt sky130_fd_sc_hd__a22o_2 A1 A2 B1 B2 VGND VNB VPB VPWR X
.ends

* Black-box entry subcircuit for sky130_fd_sc_hd__and2_2 abstract view
.subckt sky130_fd_sc_hd__and2_2 A B VGND VNB VPB VPWR X
.ends

* Black-box entry subcircuit for sky130_fd_sc_hd__o22a_2 abstract view
.subckt sky130_fd_sc_hd__o22a_2 A1 A2 B1 B2 VGND VNB VPB VPWR X
.ends

* Black-box entry subcircuit for sky130_fd_sc_hd__clkbuf_1 abstract view
.subckt sky130_fd_sc_hd__clkbuf_1 A VGND VNB VPB VPWR X
.ends

* Black-box entry subcircuit for sky130_fd_sc_hd__decap_3 abstract view
.subckt sky130_fd_sc_hd__decap_3 VGND VNB VPB VPWR
.ends

* Black-box entry subcircuit for sky130_fd_sc_hd__or3_2 abstract view
.subckt sky130_fd_sc_hd__or3_2 A B C VGND VNB VPB VPWR X
.ends

* Black-box entry subcircuit for sky130_fd_sc_hd__mux2_1 abstract view
.subckt sky130_fd_sc_hd__mux2_1 A0 A1 S VGND VNB VPB VPWR X
.ends

* Black-box entry subcircuit for sky130_fd_sc_hd__and4_2 abstract view
.subckt sky130_fd_sc_hd__and4_2 A B C D VGND VNB VPB VPWR X
.ends

* Black-box entry subcircuit for sky130_fd_sc_hd__decap_8 abstract view
.subckt sky130_fd_sc_hd__decap_8 VGND VNB VPB VPWR
.ends

* Black-box entry subcircuit for sky130_fd_sc_hd__dfrtp_2 abstract view
.subckt sky130_fd_sc_hd__dfrtp_2 CLK D RESET_B VGND VNB VPB VPWR Q
.ends

* Black-box entry subcircuit for sky130_fd_sc_hd__or3b_2 abstract view
.subckt sky130_fd_sc_hd__or3b_2 A B C_N VGND VNB VPB VPWR X
.ends

* Black-box entry subcircuit for sky130_fd_sc_hd__a211o_2 abstract view
.subckt sky130_fd_sc_hd__a211o_2 A1 A2 B1 C1 VGND VNB VPB VPWR X
.ends

* Black-box entry subcircuit for sky130_fd_sc_hd__a21bo_2 abstract view
.subckt sky130_fd_sc_hd__a21bo_2 A1 A2 B1_N VGND VNB VPB VPWR X
.ends

* Black-box entry subcircuit for sky130_fd_sc_hd__einvp_1 abstract view
.subckt sky130_fd_sc_hd__einvp_1 A TE VGND VNB VPB VPWR Z
.ends

* Black-box entry subcircuit for sky130_fd_sc_hd__or4bb_2 abstract view
.subckt sky130_fd_sc_hd__or4bb_2 A B C_N D_N VGND VNB VPB VPWR X
.ends

* Black-box entry subcircuit for sky130_fd_sc_hd__inv_2 abstract view
.subckt sky130_fd_sc_hd__inv_2 A VGND VNB VPB VPWR Y
.ends

* Black-box entry subcircuit for sky130_fd_sc_hd__tapvpwrvgnd_1 abstract view
.subckt sky130_fd_sc_hd__tapvpwrvgnd_1 VGND VPWR
.ends

* Black-box entry subcircuit for sky130_fd_sc_hd__decap_4 abstract view
.subckt sky130_fd_sc_hd__decap_4 VGND VNB VPB VPWR
.ends

* Black-box entry subcircuit for sky130_fd_sc_hd__nand3_2 abstract view
.subckt sky130_fd_sc_hd__nand3_2 A B C VGND VNB VPB VPWR Y
.ends

* Black-box entry subcircuit for sky130_fd_sc_hd__o221a_2 abstract view
.subckt sky130_fd_sc_hd__o221a_2 A1 A2 B1 B2 C1 VGND VNB VPB VPWR X
.ends

* Black-box entry subcircuit for sky130_fd_sc_hd__o2bb2a_2 abstract view
.subckt sky130_fd_sc_hd__o2bb2a_2 A1_N A2_N B1 B2 VGND VNB VPB VPWR X
.ends

* Black-box entry subcircuit for sky130_fd_sc_hd__and3b_2 abstract view
.subckt sky130_fd_sc_hd__and3b_2 A_N B C VGND VNB VPB VPWR X
.ends

* Black-box entry subcircuit for sky130_fd_sc_hd__buf_16 abstract view
.subckt sky130_fd_sc_hd__buf_16 A VGND VNB VPB VPWR X
.ends

* Black-box entry subcircuit for sky130_fd_sc_hd__clkinv_2 abstract view
.subckt sky130_fd_sc_hd__clkinv_2 A VGND VNB VPB VPWR Y
.ends

* Black-box entry subcircuit for sky130_fd_sc_hd__o31a_2 abstract view
.subckt sky130_fd_sc_hd__o31a_2 A1 A2 A3 B1 VGND VNB VPB VPWR X
.ends

* Black-box entry subcircuit for sky130_fd_sc_hd__clkinv_8 abstract view
.subckt sky130_fd_sc_hd__clkinv_8 A VGND VNB VPB VPWR Y
.ends

* Black-box entry subcircuit for sky130_fd_sc_hd__or4_2 abstract view
.subckt sky130_fd_sc_hd__or4_2 A B C D VGND VNB VPB VPWR X
.ends

* Black-box entry subcircuit for sky130_fd_sc_hd__conb_1 abstract view
.subckt sky130_fd_sc_hd__conb_1 VGND VNB VPB VPWR HI LO
.ends

* Black-box entry subcircuit for sky130_fd_sc_hd__a2111oi_2 abstract view
.subckt sky130_fd_sc_hd__a2111oi_2 A1 A2 B1 C1 D1 VGND VNB VPB VPWR Y
.ends

* Black-box entry subcircuit for sky130_fd_sc_hd__a31o_2 abstract view
.subckt sky130_fd_sc_hd__a31o_2 A1 A2 A3 B1 VGND VNB VPB VPWR X
.ends

.subckt digital_pll VGND VPWR clockp[0] clockp[1] dco div[0] div[1] div[2] div[3]
+ div[4] enable ext_trim[0] ext_trim[10] ext_trim[11] ext_trim[12] ext_trim[13] ext_trim[14]
+ ext_trim[15] ext_trim[16] ext_trim[17] ext_trim[18] ext_trim[19] ext_trim[1] ext_trim[20]
+ ext_trim[21] ext_trim[22] ext_trim[23] ext_trim[24] ext_trim[25] ext_trim[2] ext_trim[3]
+ ext_trim[4] ext_trim[5] ext_trim[6] ext_trim[7] ext_trim[8] ext_trim[9] osc resetb
X_294_ _315_/B _303_/B _294_/C VGND VGND VPWR VPWR _336_/A sky130_fd_sc_hd__and3_2
X_363_ dco _378_/B VGND VGND VPWR VPWR _363_/Y sky130_fd_sc_hd__nor2_2
Xringosc.dstage\[1\].id.delayint0 ringosc.dstage\[1\].id.delayen1/Z VGND VGND VPWR
+ VPWR ringosc.dstage\[1\].id.delayen0/A sky130_fd_sc_hd__clkinv_1
X_346_ _298_/X _333_/X _345_/Y ext_trim[20] dco VGND VGND VPWR VPWR _346_/X sky130_fd_sc_hd__a32o_2
X_277_ _385_/Q _280_/A _276_/Y _285_/S VGND VGND VPWR VPWR _385_/D sky130_fd_sc_hd__o211a_2
X_200_ _383_/Q _398_/Q VGND VGND VPWR VPWR _218_/B sky130_fd_sc_hd__xor2_2
X_329_ _315_/B _303_/B _248_/B VGND VGND VPWR VPWR _332_/C sky130_fd_sc_hd__a21o_2
XFILLER_0_57 VGND VGND VPWR VPWR sky130_fd_sc_hd__fill_1
Xringosc.dstage\[11\].id.delayen1 ringosc.dstage\[11\].id.delayen1/A _353_/X VGND
+ VGND VPWR VPWR ringosc.dstage\[11\].id.delayen1/Z sky130_fd_sc_hd__einvp_2
XFILLER_20_54 VGND VGND VPWR VPWR sky130_fd_sc_hd__fill_1
Xringosc.dstage\[10\].id.delayenb0 ringosc.dstage\[10\].id.delayenb1/A _314_/X VGND
+ VGND VPWR VPWR ringosc.dstage\[10\].id.delayen0/Z sky130_fd_sc_hd__einvn_8
Xringosc.dstage\[9\].id.delayenb0 ringosc.dstage\[9\].id.delayenb1/A _312_/X VGND
+ VGND VPWR VPWR ringosc.dstage\[9\].id.delayen0/Z sky130_fd_sc_hd__einvn_8
XFILLER_6_78 VGND VGND VPWR VPWR sky130_fd_sc_hd__fill_1
X_293_ dco _298_/C VGND VGND VPWR VPWR _294_/C sky130_fd_sc_hd__and2b_2
X_362_ dco _378_/B VGND VGND VPWR VPWR _362_/Y sky130_fd_sc_hd__nor2_2
X_345_ _393_/Q _345_/B VGND VGND VPWR VPWR _345_/Y sky130_fd_sc_hd__nand2_2
X_276_ _386_/Q _278_/B VGND VGND VPWR VPWR _276_/Y sky130_fd_sc_hd__nand2b_2
X_328_ _328_/A _328_/B VGND VGND VPWR VPWR _336_/B sky130_fd_sc_hd__or2_2
X_259_ _259_/A _259_/B VGND VGND VPWR VPWR _259_/Y sky130_fd_sc_hd__xnor2_2
XFILLER_15_7 VGND VGND VPWR VPWR sky130_fd_sc_hd__fill_1
Xringosc.dstage\[9\].id.delayenb1 ringosc.dstage\[9\].id.delayenb1/A _350_/X VGND
+ VGND VPWR VPWR ringosc.dstage\[9\].id.delayen1/Z sky130_fd_sc_hd__einvn_4
Xringosc.dstage\[10\].id.delayenb1 ringosc.dstage\[10\].id.delayenb1/A _351_/X VGND
+ VGND VPWR VPWR ringosc.dstage\[10\].id.delayen1/Z sky130_fd_sc_hd__einvn_4
XFILLER_15_99 VGND VGND VPWR VPWR sky130_fd_sc_hd__fill_1
X_292_ _324_/A _323_/B VGND VGND VPWR VPWR _303_/B sky130_fd_sc_hd__nand2_2
X_361_ dco _378_/B VGND VGND VPWR VPWR _361_/Y sky130_fd_sc_hd__nor2_2
XFILLER_10_116 VGND VGND VPWR VPWR sky130_fd_sc_hd__fill_2
X_344_ _391_/Q _390_/Q _392_/Q VGND VGND VPWR VPWR _345_/B sky130_fd_sc_hd__o21ai_2
X_275_ _386_/Q _278_/B _285_/S VGND VGND VPWR VPWR _386_/D sky130_fd_sc_hd__o21a_2
Xringosc.dstage\[4\].id.delayen0 ringosc.dstage\[4\].id.delayen0/A _302_/X VGND VGND
+ VPWR VPWR ringosc.dstage\[4\].id.delayen0/Z sky130_fd_sc_hd__einvp_2
XFILLER_3_3 VGND VGND VPWR VPWR sky130_fd_sc_hd__fill_1
X_327_ _392_/Q _327_/B VGND VGND VPWR VPWR _327_/X sky130_fd_sc_hd__or2_2
X_258_ _261_/A _261_/B _247_/B VGND VGND VPWR VPWR _259_/B sky130_fd_sc_hd__a21oi_2
X_189_ _386_/Q _401_/Q VGND VGND VPWR VPWR _190_/B sky130_fd_sc_hd__or2_2
XANTENNA__310__A1 dco VGND VGND VPWR VPWR sky130_fd_sc_hd__diode_2
XFILLER_19_130 VGND VGND VPWR VPWR sky130_fd_sc_hd__fill_1
Xringosc.dstage\[9\].id.delaybuf0 ringosc.dstage\[8\].id.delayen0/Z VGND VGND VPWR
+ VPWR ringosc.dstage\[9\].id.delayenb1/A sky130_fd_sc_hd__clkbuf_2
Xringosc.dstage\[10\].id.delaybuf0 ringosc.dstage\[9\].id.delayen0/Z VGND VGND VPWR
+ VPWR ringosc.dstage\[10\].id.delayenb1/A sky130_fd_sc_hd__clkbuf_2
Xringosc.dstage\[5\].id.delayenb0 ringosc.dstage\[5\].id.delayenb1/A _305_/X VGND
+ VGND VPWR VPWR ringosc.ibufp10/A sky130_fd_sc_hd__einvn_8
X_291_ _392_/Q _307_/C VGND VGND VPWR VPWR _323_/B sky130_fd_sc_hd__nor2_2
X_360_ dco _378_/B VGND VGND VPWR VPWR _360_/Y sky130_fd_sc_hd__nor2_2
X_343_ dco ext_trim[19] _336_/A _336_/B VGND VGND VPWR VPWR _343_/X sky130_fd_sc_hd__a22o_2
X_274_ _385_/Q _280_/A VGND VGND VPWR VPWR _278_/B sky130_fd_sc_hd__and2_2
Xringosc.dstage\[4\].id.delayen1 ringosc.dstage\[4\].id.delayen1/A _341_/X VGND VGND
+ VPWR VPWR ringosc.dstage\[4\].id.delayen1/Z sky130_fd_sc_hd__einvp_2
XFILLER_2_135 VGND VGND VPWR VPWR sky130_fd_sc_hd__fill_1
X_326_ dco ext_trim[14] _304_/X _322_/X VGND VGND VPWR VPWR _326_/X sky130_fd_sc_hd__a22o_2
XFILLER_9_25 VGND VGND VPWR VPWR sky130_fd_sc_hd__fill_2
X_257_ _393_/Q _271_/B _255_/X _256_/Y VGND VGND VPWR VPWR _393_/D sky130_fd_sc_hd__o22a_2
X_188_ _386_/Q _401_/Q VGND VGND VPWR VPWR _190_/A sky130_fd_sc_hd__nand2_2
XANTENNA__310__A2 ext_trim[8] VGND VGND VPWR VPWR sky130_fd_sc_hd__diode_2
X_309_ dco ext_trim[7] _336_/A _308_/X VGND VGND VPWR VPWR _309_/X sky130_fd_sc_hd__a22o_2
XANTENNA__295__A1 dco VGND VGND VPWR VPWR sky130_fd_sc_hd__diode_2
Xringosc.dstage\[9\].id.delaybuf1 ringosc.dstage\[9\].id.delayenb1/A VGND VGND VPWR
+ VPWR ringosc.dstage\[9\].id.delayen1/A sky130_fd_sc_hd__clkbuf_1
Xringosc.dstage\[5\].id.delayenb1 ringosc.dstage\[5\].id.delayenb1/A _342_/X VGND
+ VGND VPWR VPWR ringosc.dstage\[5\].id.delayen1/Z sky130_fd_sc_hd__einvn_4
Xringosc.dstage\[10\].id.delaybuf1 ringosc.dstage\[10\].id.delayenb1/A VGND VGND VPWR
+ VPWR ringosc.dstage\[10\].id.delayen1/A sky130_fd_sc_hd__clkbuf_1
XFILLER_11_3 VGND VGND VPWR VPWR sky130_fd_sc_hd__decap_3
X_290_ _393_/Q _307_/B _391_/Q VGND VGND VPWR VPWR _315_/B sky130_fd_sc_hd__or3_2
XFILLER_3_49 VGND VGND VPWR VPWR sky130_fd_sc_hd__fill_1
XFILLER_9_108 VGND VGND VPWR VPWR sky130_fd_sc_hd__fill_2
X_342_ dco ext_trim[18] _324_/B _296_/Y VGND VGND VPWR VPWR _342_/X sky130_fd_sc_hd__a22o_2
X_273_ _384_/Q _383_/Q _382_/Q VGND VGND VPWR VPWR _280_/A sky130_fd_sc_hd__and3_2
X_325_ _328_/A _349_/B VGND VGND VPWR VPWR _325_/X sky130_fd_sc_hd__or2_2
X_187_ _382_/Q _397_/Q _285_/S VGND VGND VPWR VPWR _397_/D sky130_fd_sc_hd__mux2_1
X_256_ _255_/A _255_/B _271_/B VGND VGND VPWR VPWR _256_/Y sky130_fd_sc_hd__o21ai_2
XFILLER_18_57 VGND VGND VPWR VPWR sky130_fd_sc_hd__fill_1
X_308_ _327_/B _328_/B VGND VGND VPWR VPWR _308_/X sky130_fd_sc_hd__or2_2
X_239_ _388_/Q _387_/Q VGND VGND VPWR VPWR _268_/B sky130_fd_sc_hd__nand2_2
XFILLER_6_27 VGND VGND VPWR VPWR sky130_fd_sc_hd__fill_1
XANTENNA__295__A2 ext_trim[1] VGND VGND VPWR VPWR sky130_fd_sc_hd__diode_2
XFILLER_22_105 VGND VGND VPWR VPWR sky130_fd_sc_hd__fill_1
Xringosc.dstage\[5\].id.delaybuf0 ringosc.dstage\[4\].id.delayen0/Z VGND VGND VPWR
+ VPWR ringosc.dstage\[5\].id.delayenb1/A sky130_fd_sc_hd__clkbuf_2
X_341_ _325_/X _338_/X _340_/X ext_trim[17] dco VGND VGND VPWR VPWR _341_/X sky130_fd_sc_hd__a32o_2
Xringosc.dstage\[1\].id.delayenb0 ringosc.dstage\[1\].id.delayenb1/A _295_/X VGND
+ VGND VPWR VPWR ringosc.dstage\[1\].id.delayen0/Z sky130_fd_sc_hd__einvn_8
XANTENNA__361__A dco VGND VGND VPWR VPWR sky130_fd_sc_hd__diode_2
X_272_ _387_/Q _238_/X _271_/Y VGND VGND VPWR VPWR _387_/D sky130_fd_sc_hd__o21a_2
Xringosc.dstage\[8\].id.delayint0 ringosc.dstage\[8\].id.delayen1/Z VGND VGND VPWR
+ VPWR ringosc.dstage\[8\].id.delayen0/A sky130_fd_sc_hd__clkinv_1
XANTENNA__356__A dco VGND VGND VPWR VPWR sky130_fd_sc_hd__diode_2
X_324_ _324_/A _324_/B VGND VGND VPWR VPWR _347_/C sky130_fd_sc_hd__or2_2
X_186_ _383_/Q _398_/Q _285_/S VGND VGND VPWR VPWR _398_/D sky130_fd_sc_hd__mux2_1
X_255_ _255_/A _255_/B VGND VGND VPWR VPWR _255_/X sky130_fd_sc_hd__and2_2
XFILLER_18_47 VGND VGND VPWR VPWR sky130_fd_sc_hd__fill_1
X_307_ _393_/Q _307_/B _307_/C VGND VGND VPWR VPWR _328_/B sky130_fd_sc_hd__or3_2
XFILLER_1_50 VGND VGND VPWR VPWR sky130_fd_sc_hd__fill_1
X_238_ _380_/Q _238_/B _238_/C _238_/D VGND VGND VPWR VPWR _238_/X sky130_fd_sc_hd__and4_2
XANTENNA__213__B1 div[2] VGND VGND VPWR VPWR sky130_fd_sc_hd__diode_2
XFILLER_19_122 VGND VGND VPWR VPWR sky130_fd_sc_hd__fill_1
XANTENNA__364__A dco VGND VGND VPWR VPWR sky130_fd_sc_hd__diode_2
XPHY_0 VGND VGND VPWR VPWR sky130_fd_sc_hd__decap_3
XANTENNA__359__A dco VGND VGND VPWR VPWR sky130_fd_sc_hd__diode_2
XFILLER_8_121 VGND VGND VPWR VPWR sky130_fd_sc_hd__decap_8
Xringosc.dstage\[5\].id.delaybuf1 ringosc.dstage\[5\].id.delayenb1/A VGND VGND VPWR
+ VPWR ringosc.dstage\[5\].id.delayen1/A sky130_fd_sc_hd__clkbuf_1
Xringosc.dstage\[1\].id.delayenb1 ringosc.dstage\[1\].id.delayenb1/A _326_/X VGND
+ VGND VPWR VPWR ringosc.dstage\[1\].id.delayen1/Z sky130_fd_sc_hd__einvn_4
X_340_ _340_/A _340_/B _340_/C VGND VGND VPWR VPWR _340_/X sky130_fd_sc_hd__and3_2
X_271_ _387_/Q _271_/B VGND VGND VPWR VPWR _271_/Y sky130_fd_sc_hd__nand2_2
Xringosc.dstage\[1\].id.delayen0 ringosc.dstage\[1\].id.delayen0/A _295_/X VGND VGND
+ VPWR VPWR ringosc.dstage\[1\].id.delayen0/Z sky130_fd_sc_hd__einvp_2
X_323_ _393_/Q _323_/B VGND VGND VPWR VPWR _349_/B sky130_fd_sc_hd__nand2_2
XANTENNA__372__A dco VGND VGND VPWR VPWR sky130_fd_sc_hd__diode_2
X_185_ _384_/Q _399_/Q _285_/S VGND VGND VPWR VPWR _399_/D sky130_fd_sc_hd__mux2_1
X_254_ _393_/Q _269_/A VGND VGND VPWR VPWR _255_/B sky130_fd_sc_hd__xnor2_2
XANTENNA__367__A dco VGND VGND VPWR VPWR sky130_fd_sc_hd__diode_2
X_306_ dco ext_trim[6] _332_/A _298_/X VGND VGND VPWR VPWR _306_/X sky130_fd_sc_hd__a22o_2
X_237_ _237_/A _237_/B _237_/C VGND VGND VPWR VPWR _238_/D sky130_fd_sc_hd__or3_2
XANTENNA__313__A_N ext_trim[10] VGND VGND VPWR VPWR sky130_fd_sc_hd__diode_2
XFILLER_20_27 VGND VGND VPWR VPWR sky130_fd_sc_hd__fill_1
XANTENNA__222__B2 div[0] VGND VGND VPWR VPWR sky130_fd_sc_hd__diode_2
XANTENNA__222__A1 div[1] VGND VGND VPWR VPWR sky130_fd_sc_hd__diode_2
XANTENNA__289__A1 ext_trim[0] VGND VGND VPWR VPWR sky130_fd_sc_hd__diode_2
XANTENNA__213__A1 div[3] VGND VGND VPWR VPWR sky130_fd_sc_hd__diode_2
XFILLER_10_82 VGND VGND VPWR VPWR sky130_fd_sc_hd__fill_2
XPHY_1 VGND VGND VPWR VPWR sky130_fd_sc_hd__decap_3
XANTENNA__375__A dco VGND VGND VPWR VPWR sky130_fd_sc_hd__diode_2
XANTENNA__334__B1 ext_trim[15] VGND VGND VPWR VPWR sky130_fd_sc_hd__diode_2
X_270_ _388_/Q _269_/Y _271_/B VGND VGND VPWR VPWR _388_/D sky130_fd_sc_hd__mux2_1
XANTENNA__316__B1 ext_trim[11] VGND VGND VPWR VPWR sky130_fd_sc_hd__diode_2
X_399_ _401_/CLK _399_/D _376_/Y VGND VGND VPWR VPWR _399_/Q sky130_fd_sc_hd__dfrtp_2
Xringosc.dstage\[1\].id.delayen1 ringosc.dstage\[1\].id.delayen1/A _326_/X VGND VGND
+ VPWR VPWR ringosc.dstage\[1\].id.delayen1/Z sky130_fd_sc_hd__einvp_2
X_322_ _393_/Q _307_/B _320_/X _321_/Y VGND VGND VPWR VPWR _322_/X sky130_fd_sc_hd__o211a_2
Xringosc.dstage\[1\].id.delaybuf0 ringosc.dstage\[0\].id.delayen0/Z VGND VGND VPWR
+ VPWR ringosc.dstage\[1\].id.delayenb1/A sky130_fd_sc_hd__clkbuf_2
Xringosc.dstage\[4\].id.delayint0 ringosc.dstage\[4\].id.delayen1/Z VGND VGND VPWR
+ VPWR ringosc.dstage\[4\].id.delayen0/A sky130_fd_sc_hd__clkinv_1
X_184_ _385_/Q _400_/Q _285_/S VGND VGND VPWR VPWR _400_/D sky130_fd_sc_hd__mux2_1
X_253_ _259_/A _261_/A _261_/B _324_/B _269_/A VGND VGND VPWR VPWR _255_/A sky130_fd_sc_hd__a32o_2
X_305_ dco ext_trim[5] _304_/X VGND VGND VPWR VPWR _305_/X sky130_fd_sc_hd__a21o_2
X_236_ _236_/A _236_/B _207_/X VGND VGND VPWR VPWR _237_/C sky130_fd_sc_hd__or3b_2
XANTENNA__289__A2 dco VGND VGND VPWR VPWR sky130_fd_sc_hd__diode_2
XFILLER_10_50 VGND VGND VPWR VPWR sky130_fd_sc_hd__fill_1
XFILLER_10_72 VGND VGND VPWR VPWR sky130_fd_sc_hd__decap_3
XANTENNA__378__A dco VGND VGND VPWR VPWR sky130_fd_sc_hd__diode_2
XANTENNA__288__A dco VGND VGND VPWR VPWR sky130_fd_sc_hd__diode_2
XFILLER_19_135 VGND VGND VPWR VPWR sky130_fd_sc_hd__fill_1
XFILLER_19_70 VGND VGND VPWR VPWR sky130_fd_sc_hd__fill_1
X_219_ div[1] _219_/B VGND VGND VPWR VPWR _223_/A sky130_fd_sc_hd__nand2_2
Xringosc.dstage\[9\].id.delayen0 ringosc.dstage\[9\].id.delayen0/A _312_/X VGND VGND
+ VPWR VPWR ringosc.dstage\[9\].id.delayen0/Z sky130_fd_sc_hd__einvp_2
XPHY_2 VGND VGND VPWR VPWR sky130_fd_sc_hd__decap_3
XANTENNA__343__A1 dco VGND VGND VPWR VPWR sky130_fd_sc_hd__diode_2
XFILLER_16_93 VGND VGND VPWR VPWR sky130_fd_sc_hd__fill_1
XFILLER_8_134 VGND VGND VPWR VPWR sky130_fd_sc_hd__fill_2
XANTENNA__334__B2 dco VGND VGND VPWR VPWR sky130_fd_sc_hd__diode_2
XANTENNA__316__B2 dco VGND VGND VPWR VPWR sky130_fd_sc_hd__diode_2
X_398_ _401_/CLK _398_/D _375_/Y VGND VGND VPWR VPWR _398_/Q sky130_fd_sc_hd__dfrtp_2
XFILLER_4_52 VGND VGND VPWR VPWR sky130_fd_sc_hd__fill_1
XFILLER_4_85 VGND VGND VPWR VPWR sky130_fd_sc_hd__fill_1
Xringosc.dstage\[1\].id.delaybuf1 ringosc.dstage\[1\].id.delayenb1/A VGND VGND VPWR
+ VPWR ringosc.dstage\[1\].id.delayen1/A sky130_fd_sc_hd__clkbuf_1
X_321_ _393_/Q _328_/A _323_/B VGND VGND VPWR VPWR _321_/Y sky130_fd_sc_hd__o21ai_2
X_183_ _386_/Q _401_/Q _285_/S VGND VGND VPWR VPWR _401_/D sky130_fd_sc_hd__mux2_1
X_252_ _339_/A _266_/A _266_/B _327_/B _269_/A VGND VGND VPWR VPWR _261_/B sky130_fd_sc_hd__a32o_2
XANTENNA__225__B1 div[4] VGND VGND VPWR VPWR sky130_fd_sc_hd__diode_2
X_304_ _339_/A _303_/B _294_/C _303_/X VGND VGND VPWR VPWR _304_/X sky130_fd_sc_hd__o211a_2
X_235_ div[0] _235_/B VGND VGND VPWR VPWR _236_/A sky130_fd_sc_hd__and2_2
XFILLER_20_29 VGND VGND VPWR VPWR sky130_fd_sc_hd__fill_1
X_218_ _218_/A _218_/B VGND VGND VPWR VPWR _219_/B sky130_fd_sc_hd__xnor2_2
Xringosc.dstage\[9\].id.delayen1 ringosc.dstage\[9\].id.delayen1/A _350_/X VGND VGND
+ VPWR VPWR ringosc.dstage\[9\].id.delayen1/Z sky130_fd_sc_hd__einvp_2
XPHY_3 VGND VGND VPWR VPWR sky130_fd_sc_hd__decap_3
XANTENNA__343__A2 ext_trim[19] VGND VGND VPWR VPWR sky130_fd_sc_hd__diode_2
XANTENNA__296__B dco VGND VGND VPWR VPWR sky130_fd_sc_hd__diode_2
X_397_ _401_/CLK _397_/D _374_/Y VGND VGND VPWR VPWR _397_/Q sky130_fd_sc_hd__dfrtp_2
X_320_ _392_/Q _327_/B _391_/Q _324_/A VGND VGND VPWR VPWR _320_/X sky130_fd_sc_hd__a211o_2
X_182_ _396_/D _396_/Q VGND VGND VPWR VPWR _287_/B sky130_fd_sc_hd__xor2_2
X_251_ _269_/A _268_/A _268_/B VGND VGND VPWR VPWR _266_/B sky130_fd_sc_hd__a21bo_2
X_303_ _327_/B _303_/B VGND VGND VPWR VPWR _303_/X sky130_fd_sc_hd__or2_2
X_234_ _381_/Q _379_/Q _287_/B VGND VGND VPWR VPWR _238_/C sky130_fd_sc_hd__and3_2
XANTENNA__207__A1 div[4] VGND VGND VPWR VPWR sky130_fd_sc_hd__diode_2
Xringosc.iss.reseten0 ringosc.iss.const1/HI _378_/B VGND VGND VPWR VPWR ringosc.ibufp00/A
+ sky130_fd_sc_hd__einvp_1
Xringosc.dstage\[0\].id.delayint0 ringosc.dstage\[0\].id.delayen1/Z VGND VGND VPWR
+ VPWR ringosc.dstage\[0\].id.delayen0/A sky130_fd_sc_hd__clkinv_1
X_217_ _226_/A _217_/B _217_/C VGND VGND VPWR VPWR _237_/A sky130_fd_sc_hd__or3_2
XFILLER_10_85 VGND VGND VPWR VPWR sky130_fd_sc_hd__fill_1
XANTENNA__346__B1 ext_trim[20] VGND VGND VPWR VPWR sky130_fd_sc_hd__diode_2
XPHY_4 VGND VGND VPWR VPWR sky130_fd_sc_hd__decap_3
XFILLER_7_53 VGND VGND VPWR VPWR sky130_fd_sc_hd__decap_3
Xringosc.dstage\[8\].id.delayenb0 ringosc.dstage\[8\].id.delayenb1/A _310_/X VGND
+ VGND VPWR VPWR ringosc.dstage\[8\].id.delayen0/Z sky130_fd_sc_hd__einvn_8
X_396_ _401_/CLK _396_/D _373_/Y VGND VGND VPWR VPWR _396_/Q sky130_fd_sc_hd__dfrtp_2
X_181_ _396_/D _396_/Q VGND VGND VPWR VPWR _285_/S sky130_fd_sc_hd__xnor2_2
X_250_ _347_/B _269_/A VGND VGND VPWR VPWR _266_/A sky130_fd_sc_hd__xnor2_2
X_379_ _401_/CLK _379_/D _356_/Y VGND VGND VPWR VPWR _379_/Q sky130_fd_sc_hd__dfrtp_2
X_302_ dco ext_trim[4] _340_/A VGND VGND VPWR VPWR _302_/X sky130_fd_sc_hd__a21o_2
X_233_ _388_/Q _387_/Q _269_/A _288_/B VGND VGND VPWR VPWR _238_/B sky130_fd_sc_hd__or4bb_2
XFILLER_19_40 VGND VGND VPWR VPWR sky130_fd_sc_hd__fill_1
X_216_ div[2] _216_/B VGND VGND VPWR VPWR _217_/C sky130_fd_sc_hd__nor2_2
Xringosc.iss.delayint0 ringosc.iss.delayen1/Z VGND VGND VPWR VPWR ringosc.iss.delayen0/A
+ sky130_fd_sc_hd__clkinv_1
XANTENNA__346__B2 dco VGND VGND VPWR VPWR sky130_fd_sc_hd__diode_2
XPHY_5 VGND VGND VPWR VPWR sky130_fd_sc_hd__decap_3
XANTENNA__337__A1 dco VGND VGND VPWR VPWR sky130_fd_sc_hd__diode_2
XFILLER_21_111 VGND VGND VPWR VPWR sky130_fd_sc_hd__fill_1
XANTENNA__319__A1 dco VGND VGND VPWR VPWR sky130_fd_sc_hd__diode_2
Xringosc.dstage\[8\].id.delayenb1 ringosc.dstage\[8\].id.delayenb1/A _348_/X VGND
+ VGND VPWR VPWR ringosc.dstage\[8\].id.delayen1/Z sky130_fd_sc_hd__einvn_4
X_395_ _401_/CLK _395_/D _372_/Y VGND VGND VPWR VPWR _396_/D sky130_fd_sc_hd__dfrtp_2
X_180_ _389_/Q VGND VGND VPWR VPWR _347_/B sky130_fd_sc_hd__inv_2
X_378_ dco _378_/B VGND VGND VPWR VPWR _378_/Y sky130_fd_sc_hd__nor2_2
X_301_ _390_/Q _315_/B _303_/B _294_/C VGND VGND VPWR VPWR _340_/A sky130_fd_sc_hd__o211a_2
X_232_ _388_/Q _387_/Q VGND VGND VPWR VPWR _268_/A sky130_fd_sc_hd__or2_2
XANTENNA__394__D osc VGND VGND VPWR VPWR sky130_fd_sc_hd__diode_2
Xringosc.dstage\[6\].id.delayen0 ringosc.dstage\[6\].id.delayen0/A _306_/X VGND VGND
+ VPWR VPWR ringosc.dstage\[6\].id.delayen0/Z sky130_fd_sc_hd__einvp_2
X_215_ _211_/Y _212_/X div[3] VGND VGND VPWR VPWR _226_/B sky130_fd_sc_hd__a21o_2
XPHY_6 VGND VGND VPWR VPWR sky130_fd_sc_hd__decap_3
XANTENNA__337__A2 ext_trim[16] VGND VGND VPWR VPWR sky130_fd_sc_hd__diode_2
XANTENNA__319__A2 ext_trim[13] VGND VGND VPWR VPWR sky130_fd_sc_hd__diode_2
X_394_ _401_/CLK osc _371_/Y VGND VGND VPWR VPWR _395_/D sky130_fd_sc_hd__dfrtp_2
XFILLER_1_111 VGND VGND VPWR VPWR sky130_fd_sc_hd__fill_1
X_377_ dco _378_/B VGND VGND VPWR VPWR _377_/Y sky130_fd_sc_hd__nor2_2
Xringosc.dstage\[8\].id.delaybuf0 ringosc.dstage\[7\].id.delayen0/Z VGND VGND VPWR
+ VPWR ringosc.dstage\[8\].id.delayenb1/A sky130_fd_sc_hd__clkbuf_2
Xringosc.dstage\[4\].id.delayenb0 ringosc.dstage\[4\].id.delayenb1/A _302_/X VGND
+ VGND VPWR VPWR ringosc.dstage\[4\].id.delayen0/Z sky130_fd_sc_hd__einvn_8
X_300_ dco ext_trim[3] _294_/C VGND VGND VPWR VPWR _300_/X sky130_fd_sc_hd__a21o_2
X_231_ _327_/B _298_/C VGND VGND VPWR VPWR _288_/B sky130_fd_sc_hd__nor2_2
XANTENNA__352__A_N dco VGND VGND VPWR VPWR sky130_fd_sc_hd__diode_2
XTAP_90 VGND VPWR sky130_fd_sc_hd__tapvpwrvgnd_1
Xringosc.dstage\[10\].id.delayen0 ringosc.dstage\[10\].id.delayen0/A _314_/X VGND
+ VGND VPWR VPWR ringosc.dstage\[10\].id.delayen0/Z sky130_fd_sc_hd__einvp_2
Xringosc.dstage\[6\].id.delayen1 ringosc.dstage\[6\].id.delayen1/A _343_/X VGND VGND
+ VPWR VPWR ringosc.dstage\[6\].id.delayen1/Z sky130_fd_sc_hd__einvp_2
XFILLER_19_86 VGND VGND VPWR VPWR sky130_fd_sc_hd__fill_1
X_214_ _211_/Y _212_/X div[3] VGND VGND VPWR VPWR _217_/B sky130_fd_sc_hd__a21oi_2
XPHY_7 VGND VGND VPWR VPWR sky130_fd_sc_hd__decap_3
XFILLER_21_135 VGND VGND VPWR VPWR sky130_fd_sc_hd__fill_1
XFILLER_7_89 VGND VGND VPWR VPWR sky130_fd_sc_hd__fill_2
XFILLER_12_135 VGND VGND VPWR VPWR sky130_fd_sc_hd__fill_1
XFILLER_4_131 VGND VGND VPWR VPWR sky130_fd_sc_hd__decap_4
X_393_ _401_/CLK _393_/D _370_/Y VGND VGND VPWR VPWR _393_/Q sky130_fd_sc_hd__dfrtp_2
XFILLER_1_134 VGND VGND VPWR VPWR sky130_fd_sc_hd__fill_2
Xringosc.dstage\[8\].id.delaybuf1 ringosc.dstage\[8\].id.delayenb1/A VGND VGND VPWR
+ VPWR ringosc.dstage\[8\].id.delayen1/A sky130_fd_sc_hd__clkbuf_1
Xringosc.dstage\[4\].id.delayenb1 ringosc.dstage\[4\].id.delayenb1/A _341_/X VGND
+ VGND VPWR VPWR ringosc.dstage\[4\].id.delayen1/Z sky130_fd_sc_hd__einvn_4
X_376_ dco _378_/B VGND VGND VPWR VPWR _376_/Y sky130_fd_sc_hd__nor2_2
X_230_ _393_/Q _324_/B VGND VGND VPWR VPWR _298_/C sky130_fd_sc_hd__or2_2
X_359_ dco _378_/B VGND VGND VPWR VPWR _359_/Y sky130_fd_sc_hd__nor2_2
XTAP_91 VGND VPWR sky130_fd_sc_hd__tapvpwrvgnd_1
Xringosc.dstage\[10\].id.delayen1 ringosc.dstage\[10\].id.delayen1/A _351_/X VGND
+ VGND VPWR VPWR ringosc.dstage\[10\].id.delayen1/Z sky130_fd_sc_hd__einvp_2
XANTENNA__300__A1 dco VGND VGND VPWR VPWR sky130_fd_sc_hd__diode_2
XTAP_80 VGND VPWR sky130_fd_sc_hd__tapvpwrvgnd_1
X_213_ div[3] _211_/Y _212_/X div[2] _216_/B VGND VGND VPWR VPWR _226_/A sky130_fd_sc_hd__a32o_2
XANTENNA__313__B dco VGND VGND VPWR VPWR sky130_fd_sc_hd__diode_2
XPHY_8 VGND VGND VPWR VPWR sky130_fd_sc_hd__decap_3
XFILLER_8_129 VGND VGND VPWR VPWR sky130_fd_sc_hd__fill_2
X_392_ _401_/CLK _392_/D _369_/Y VGND VGND VPWR VPWR _392_/Q sky130_fd_sc_hd__dfrtp_2
X_375_ dco _378_/B VGND VGND VPWR VPWR _375_/Y sky130_fd_sc_hd__nor2_2
X_358_ dco _378_/B VGND VGND VPWR VPWR _358_/Y sky130_fd_sc_hd__nor2_2
XTAP_92 VGND VPWR sky130_fd_sc_hd__tapvpwrvgnd_1
Xringosc.dstage\[4\].id.delaybuf0 ringosc.dstage\[3\].id.delayen0/Z VGND VGND VPWR
+ VPWR ringosc.dstage\[4\].id.delayenb1/A sky130_fd_sc_hd__clkbuf_2
XANTENNA__300__A2 ext_trim[3] VGND VGND VPWR VPWR sky130_fd_sc_hd__diode_2
XTAP_81 VGND VPWR sky130_fd_sc_hd__tapvpwrvgnd_1
XTAP_70 VGND VPWR sky130_fd_sc_hd__tapvpwrvgnd_1
X_289_ ext_trim[0] dco _332_/A VGND VGND VPWR VPWR _289_/X sky130_fd_sc_hd__a21o_2
Xringosc.dstage\[7\].id.delayint0 ringosc.dstage\[7\].id.delayen1/Z VGND VGND VPWR
+ VPWR ringosc.dstage\[7\].id.delayen0/A sky130_fd_sc_hd__clkinv_1
X_212_ _211_/A _211_/B _211_/C VGND VGND VPWR VPWR _212_/X sky130_fd_sc_hd__a21o_2
Xringosc.dstage\[0\].id.delayenb0 ringosc.dstage\[0\].id.delayenb1/A _289_/X VGND
+ VGND VPWR VPWR ringosc.dstage\[0\].id.delayen0/Z sky130_fd_sc_hd__einvn_8
XPHY_9 VGND VGND VPWR VPWR sky130_fd_sc_hd__decap_3
X_391_ _401_/CLK _391_/D _368_/Y VGND VGND VPWR VPWR _391_/Q sky130_fd_sc_hd__dfrtp_2
X_374_ dco _378_/B VGND VGND VPWR VPWR _374_/Y sky130_fd_sc_hd__nor2_2
XTAP_93 VGND VPWR sky130_fd_sc_hd__tapvpwrvgnd_1
Xringosc.dstage\[3\].id.delayen0 ringosc.dstage\[3\].id.delayen0/A _300_/X VGND VGND
+ VPWR VPWR ringosc.dstage\[3\].id.delayen0/Z sky130_fd_sc_hd__einvp_2
XTAP_82 VGND VPWR sky130_fd_sc_hd__tapvpwrvgnd_1
X_357_ dco _378_/B VGND VGND VPWR VPWR _357_/Y sky130_fd_sc_hd__nor2_2
XTAP_60 VGND VPWR sky130_fd_sc_hd__tapvpwrvgnd_1
XTAP_71 VGND VPWR sky130_fd_sc_hd__tapvpwrvgnd_1
X_288_ dco _288_/B VGND VGND VPWR VPWR _332_/A sky130_fd_sc_hd__nor2_2
Xringosc.dstage\[4\].id.delaybuf1 ringosc.dstage\[4\].id.delayenb1/A VGND VGND VPWR
+ VPWR ringosc.dstage\[4\].id.delayen1/A sky130_fd_sc_hd__clkbuf_1
X_211_ _211_/A _211_/B _211_/C VGND VGND VPWR VPWR _211_/Y sky130_fd_sc_hd__nand3_2
Xringosc.dstage\[0\].id.delayenb1 ringosc.dstage\[0\].id.delayenb1/A _319_/X VGND
+ VGND VPWR VPWR ringosc.dstage\[0\].id.delayen1/Z sky130_fd_sc_hd__einvn_4
XFILLER_18_121 VGND VGND VPWR VPWR sky130_fd_sc_hd__fill_1
Xringosc.iss.delayenb0 ringosc.iss.delayenb1/A ringosc.iss.ctrlen0/X VGND VGND VPWR
+ VPWR ringosc.ibufp00/A sky130_fd_sc_hd__einvn_8
X_390_ _401_/CLK _390_/D _367_/Y VGND VGND VPWR VPWR _390_/Q sky130_fd_sc_hd__dfrtp_2
XFILLER_13_25 VGND VGND VPWR VPWR sky130_fd_sc_hd__fill_1
XANTENNA__312__A1 dco VGND VGND VPWR VPWR sky130_fd_sc_hd__diode_2
X_373_ dco _378_/B VGND VGND VPWR VPWR _373_/Y sky130_fd_sc_hd__nor2_2
X_356_ dco _378_/B VGND VGND VPWR VPWR _356_/Y sky130_fd_sc_hd__nor2_2
X_287_ _379_/Q _287_/B VGND VGND VPWR VPWR _379_/D sky130_fd_sc_hd__or2_2
XTAP_94 VGND VPWR sky130_fd_sc_hd__tapvpwrvgnd_1