* NGSPICE file created from housekeeping.ext - technology: sky130A

* Black-box entry subcircuit for sky130_ef_sc_hd__decap_12 abstract view
.subckt sky130_ef_sc_hd__decap_12 VGND VNB VPB VPWR
.ends

* Black-box entry subcircuit for sky130_fd_sc_hd__fill_1 abstract view
.subckt sky130_fd_sc_hd__fill_1 VGND VNB VPB VPWR
.ends

* Black-box entry subcircuit for sky130_fd_sc_hd__fill_2 abstract view
.subckt sky130_fd_sc_hd__fill_2 VGND VNB VPB VPWR
.ends

* Black-box entry subcircuit for sky130_fd_sc_hd__decap_4 abstract view
.subckt sky130_fd_sc_hd__decap_4 VGND VNB VPB VPWR
.ends

* Black-box entry subcircuit for sky130_fd_sc_hd__dfstp_2 abstract view
.subckt sky130_fd_sc_hd__dfstp_2 CLK D SET_B VGND VNB VPB VPWR Q
.ends

* Black-box entry subcircuit for sky130_fd_sc_hd__dfrtp_4 abstract view
.subckt sky130_fd_sc_hd__dfrtp_4 CLK D RESET_B VGND VNB VPB VPWR Q
.ends

* Black-box entry subcircuit for sky130_fd_sc_hd__decap_6 abstract view
.subckt sky130_fd_sc_hd__decap_6 VGND VNB VPB VPWR
.ends

* Black-box entry subcircuit for sky130_fd_sc_hd__decap_8 abstract view
.subckt sky130_fd_sc_hd__decap_8 VGND VNB VPB VPWR
.ends

* Black-box entry subcircuit for sky130_fd_sc_hd__dfrtp_1 abstract view
.subckt sky130_fd_sc_hd__dfrtp_1 CLK D RESET_B VGND VNB VPB VPWR Q
.ends

* Black-box entry subcircuit for sky130_fd_sc_hd__mux2_1 abstract view
.subckt sky130_fd_sc_hd__mux2_1 A0 A1 S VGND VNB VPB VPWR X
.ends

* Black-box entry subcircuit for sky130_fd_sc_hd__a22o_1 abstract view
.subckt sky130_fd_sc_hd__a22o_1 A1 A2 B1 B2 VGND VNB VPB VPWR X
.ends

* Black-box entry subcircuit for sky130_fd_sc_hd__a221o_1 abstract view
.subckt sky130_fd_sc_hd__a221o_1 A1 A2 B1 B2 C1 VGND VNB VPB VPWR X
.ends

* Black-box entry subcircuit for sky130_fd_sc_hd__or3b_4 abstract view
.subckt sky130_fd_sc_hd__or3b_4 A B C_N VGND VNB VPB VPWR X
.ends

* Black-box entry subcircuit for sky130_fd_sc_hd__o32a_1 abstract view
.subckt sky130_fd_sc_hd__o32a_1 A1 A2 A3 B1 B2 VGND VNB VPB VPWR X
.ends

* Black-box entry subcircuit for sky130_fd_sc_hd__dlygate4sd3_1 abstract view
.subckt sky130_fd_sc_hd__dlygate4sd3_1 A VGND VNB VPB VPWR X
.ends

* Black-box entry subcircuit for sky130_fd_sc_hd__tapvpwrvgnd_1 abstract view
.subckt sky130_fd_sc_hd__tapvpwrvgnd_1 VGND VPWR
.ends

* Black-box entry subcircuit for sky130_fd_sc_hd__diode_2 abstract view
.subckt sky130_fd_sc_hd__diode_2 DIODE VGND VNB VPB VPWR
.ends

* Black-box entry subcircuit for sky130_fd_sc_hd__decap_3 abstract view
.subckt sky130_fd_sc_hd__decap_3 VGND VNB VPB VPWR
.ends

* Black-box entry subcircuit for sky130_fd_sc_hd__nand3b_1 abstract view
.subckt sky130_fd_sc_hd__nand3b_1 A_N B C VGND VNB VPB VPWR Y
.ends

* Black-box entry subcircuit for sky130_fd_sc_hd__o21a_2 abstract view
.subckt sky130_fd_sc_hd__o21a_2 A1 A2 B1 VGND VNB VPB VPWR X
.ends

* Black-box entry subcircuit for sky130_fd_sc_hd__o41a_1 abstract view
.subckt sky130_fd_sc_hd__o41a_1 A1 A2 A3 A4 B1 VGND VNB VPB VPWR X
.ends

* Black-box entry subcircuit for sky130_fd_sc_hd__nand2_1 abstract view
.subckt sky130_fd_sc_hd__nand2_1 A B VGND VNB VPB VPWR Y
.ends

* Black-box entry subcircuit for sky130_fd_sc_hd__dfrtp_2 abstract view
.subckt sky130_fd_sc_hd__dfrtp_2 CLK D RESET_B VGND VNB VPB VPWR Q
.ends

* Black-box entry subcircuit for sky130_fd_sc_hd__inv_2 abstract view
.subckt sky130_fd_sc_hd__inv_2 A VGND VNB VPB VPWR Y
.ends

* Black-box entry subcircuit for sky130_fd_sc_hd__and3_4 abstract view
.subckt sky130_fd_sc_hd__and3_4 A B C VGND VNB VPB VPWR X
.ends

* Black-box entry subcircuit for sky130_fd_sc_hd__o22a_1 abstract view
.subckt sky130_fd_sc_hd__o22a_1 A1 A2 B1 B2 VGND VNB VPB VPWR X
.ends

* Black-box entry subcircuit for sky130_fd_sc_hd__and2b_1 abstract view
.subckt sky130_fd_sc_hd__and2b_1 A_N B VGND VNB VPB VPWR X
.ends

* Black-box entry subcircuit for sky130_fd_sc_hd__clkbuf_8 abstract view
.subckt sky130_fd_sc_hd__clkbuf_8 A VGND VNB VPB VPWR X
.ends

* Black-box entry subcircuit for sky130_fd_sc_hd__buf_12 abstract view
.subckt sky130_fd_sc_hd__buf_12 A VGND VNB VPB VPWR X
.ends

* Black-box entry subcircuit for sky130_fd_sc_hd__dfstp_1 abstract view
.subckt sky130_fd_sc_hd__dfstp_1 CLK D SET_B VGND VNB VPB VPWR Q
.ends

* Black-box entry subcircuit for sky130_fd_sc_hd__clkbuf_1 abstract view
.subckt sky130_fd_sc_hd__clkbuf_1 A VGND VNB VPB VPWR X
.ends

* Black-box entry subcircuit for sky130_fd_sc_hd__conb_1 abstract view
.subckt sky130_fd_sc_hd__conb_1 VGND VNB VPB VPWR HI LO
.ends

* Black-box entry subcircuit for sky130_fd_sc_hd__buf_4 abstract view
.subckt sky130_fd_sc_hd__buf_4 A VGND VNB VPB VPWR X
.ends

* Black-box entry subcircuit for sky130_fd_sc_hd__a22o_2 abstract view
.subckt sky130_fd_sc_hd__a22o_2 A1 A2 B1 B2 VGND VNB VPB VPWR X
.ends

* Black-box entry subcircuit for sky130_fd_sc_hd__or2_1 abstract view
.subckt sky130_fd_sc_hd__or2_1 A B VGND VNB VPB VPWR X
.ends

* Black-box entry subcircuit for sky130_fd_sc_hd__nor2_8 abstract view
.subckt sky130_fd_sc_hd__nor2_8 A B VGND VNB VPB VPWR Y
.ends

* Black-box entry subcircuit for sky130_fd_sc_hd__and2_1 abstract view
.subckt sky130_fd_sc_hd__and2_1 A B VGND VNB VPB VPWR X
.ends

* Black-box entry subcircuit for sky130_fd_sc_hd__and3_1 abstract view
.subckt sky130_fd_sc_hd__and3_1 A B C VGND VNB VPB VPWR X
.ends

* Black-box entry subcircuit for sky130_fd_sc_hd__or4b_4 abstract view
.subckt sky130_fd_sc_hd__or4b_4 A B C D_N VGND VNB VPB VPWR X
.ends

* Black-box entry subcircuit for sky130_fd_sc_hd__o311a_1 abstract view
.subckt sky130_fd_sc_hd__o311a_1 A1 A2 A3 B1 C1 VGND VNB VPB VPWR X
.ends

* Black-box entry subcircuit for sky130_fd_sc_hd__o221a_1 abstract view
.subckt sky130_fd_sc_hd__o221a_1 A1 A2 B1 B2 C1 VGND VNB VPB VPWR X
.ends

* Black-box entry subcircuit for sky130_fd_sc_hd__or3b_1 abstract view
.subckt sky130_fd_sc_hd__or3b_1 A B C_N VGND VNB VPB VPWR X
.ends

* Black-box entry subcircuit for sky130_fd_sc_hd__nor4b_1 abstract view
.subckt sky130_fd_sc_hd__nor4b_1 A B C D_N VGND VNB VPB VPWR Y
.ends

* Black-box entry subcircuit for sky130_fd_sc_hd__o221ai_4 abstract view
.subckt sky130_fd_sc_hd__o221ai_4 A1 A2 B1 B2 C1 VGND VNB VPB VPWR Y
.ends

* Black-box entry subcircuit for sky130_fd_sc_hd__o31ai_1 abstract view
.subckt sky130_fd_sc_hd__o31ai_1 A1 A2 A3 B1 VGND VNB VPB VPWR Y
.ends

* Black-box entry subcircuit for sky130_fd_sc_hd__or2_4 abstract view
.subckt sky130_fd_sc_hd__or2_4 A B VGND VNB VPB VPWR X
.ends

* Black-box entry subcircuit for sky130_fd_sc_hd__dfstp_4 abstract view
.subckt sky130_fd_sc_hd__dfstp_4 CLK D SET_B VGND VNB VPB VPWR Q
.ends

* Black-box entry subcircuit for sky130_fd_sc_hd__clkbuf_16 abstract view
.subckt sky130_fd_sc_hd__clkbuf_16 A VGND VNB VPB VPWR X
.ends

* Black-box entry subcircuit for sky130_fd_sc_hd__a2111o_1 abstract view
.subckt sky130_fd_sc_hd__a2111o_1 A1 A2 B1 C1 D1 VGND VNB VPB VPWR X
.ends

* Black-box entry subcircuit for sky130_fd_sc_hd__a31o_1 abstract view
.subckt sky130_fd_sc_hd__a31o_1 A1 A2 A3 B1 VGND VNB VPB VPWR X
.ends

* Black-box entry subcircuit for sky130_fd_sc_hd__a211o_1 abstract view
.subckt sky130_fd_sc_hd__a211o_1 A1 A2 B1 C1 VGND VNB VPB VPWR X
.ends

* Black-box entry subcircuit for sky130_fd_sc_hd__nand3_1 abstract view
.subckt sky130_fd_sc_hd__nand3_1 A B C VGND VNB VPB VPWR Y
.ends

* Black-box entry subcircuit for sky130_fd_sc_hd__and4b_1 abstract view
.subckt sky130_fd_sc_hd__and4b_1 A_N B C D VGND VNB VPB VPWR X
.ends

* Black-box entry subcircuit for sky130_fd_sc_hd__clkbuf_4 abstract view
.subckt sky130_fd_sc_hd__clkbuf_4 A VGND VNB VPB VPWR X
.ends

* Black-box entry subcircuit for sky130_fd_sc_hd__and2_2 abstract view
.subckt sky130_fd_sc_hd__and2_2 A B VGND VNB VPB VPWR X
.ends

* Black-box entry subcircuit for sky130_fd_sc_hd__a21o_1 abstract view
.subckt sky130_fd_sc_hd__a21o_1 A1 A2 B1 VGND VNB VPB VPWR X
.ends

* Black-box entry subcircuit for sky130_fd_sc_hd__nand2b_4 abstract view
.subckt sky130_fd_sc_hd__nand2b_4 A_N B VGND VNB VPB VPWR Y
.ends

* Black-box entry subcircuit for sky130_fd_sc_hd__clkbuf_2 abstract view
.subckt sky130_fd_sc_hd__clkbuf_2 A VGND VNB VPB VPWR X
.ends

* Black-box entry subcircuit for sky130_fd_sc_hd__nor2_1 abstract view
.subckt sky130_fd_sc_hd__nor2_1 A B VGND VNB VPB VPWR Y
.ends

* Black-box entry subcircuit for sky130_fd_sc_hd__and2_4 abstract view
.subckt sky130_fd_sc_hd__and2_4 A B VGND VNB VPB VPWR X
.ends

* Black-box entry subcircuit for sky130_fd_sc_hd__and3b_1 abstract view
.subckt sky130_fd_sc_hd__and3b_1 A_N B C VGND VNB VPB VPWR X
.ends

* Black-box entry subcircuit for sky130_fd_sc_hd__a41o_1 abstract view
.subckt sky130_fd_sc_hd__a41o_1 A1 A2 A3 A4 B1 VGND VNB VPB VPWR X
.ends

* Black-box entry subcircuit for sky130_fd_sc_hd__buf_8 abstract view
.subckt sky130_fd_sc_hd__buf_8 A VGND VNB VPB VPWR X
.ends

* Black-box entry subcircuit for sky130_fd_sc_hd__o211a_1 abstract view
.subckt sky130_fd_sc_hd__o211a_1 A1 A2 B1 C1 VGND VNB VPB VPWR X
.ends

* Black-box entry subcircuit for sky130_fd_sc_hd__or4b_1 abstract view
.subckt sky130_fd_sc_hd__or4b_1 A B C D_N VGND VNB VPB VPWR X
.ends

* Black-box entry subcircuit for sky130_fd_sc_hd__o21a_1 abstract view
.subckt sky130_fd_sc_hd__o21a_1 A1 A2 B1 VGND VNB VPB VPWR X
.ends

* Black-box entry subcircuit for sky130_fd_sc_hd__o31a_1 abstract view
.subckt sky130_fd_sc_hd__o31a_1 A1 A2 A3 B1 VGND VNB VPB VPWR X
.ends

* Black-box entry subcircuit for sky130_fd_sc_hd__nand2_2 abstract view
.subckt sky130_fd_sc_hd__nand2_2 A B VGND VNB VPB VPWR Y
.ends

* Black-box entry subcircuit for sky130_fd_sc_hd__nor2_4 abstract view
.subckt sky130_fd_sc_hd__nor2_4 A B VGND VNB VPB VPWR Y
.ends

* Black-box entry subcircuit for sky130_fd_sc_hd__or2_2 abstract view
.subckt sky130_fd_sc_hd__or2_2 A B VGND VNB VPB VPWR X
.ends

* Black-box entry subcircuit for sky130_fd_sc_hd__and4bb_1 abstract view
.subckt sky130_fd_sc_hd__and4bb_1 A_N B_N C D VGND VNB VPB VPWR X
.ends

* Black-box entry subcircuit for sky130_fd_sc_hd__buf_6 abstract view
.subckt sky130_fd_sc_hd__buf_6 A VGND VNB VPB VPWR X
.ends

* Black-box entry subcircuit for sky130_fd_sc_hd__a2bb2o_1 abstract view
.subckt sky130_fd_sc_hd__a2bb2o_1 A1_N A2_N B1 B2 VGND VNB VPB VPWR X
.ends

* Black-box entry subcircuit for sky130_fd_sc_hd__nand2_8 abstract view
.subckt sky130_fd_sc_hd__nand2_8 A B VGND VNB VPB VPWR Y
.ends

* Black-box entry subcircuit for sky130_fd_sc_hd__nor2_2 abstract view
.subckt sky130_fd_sc_hd__nor2_2 A B VGND VNB VPB VPWR Y
.ends

* Black-box entry subcircuit for sky130_fd_sc_hd__and2b_2 abstract view
.subckt sky130_fd_sc_hd__and2b_2 A_N B VGND VNB VPB VPWR X
.ends

* Black-box entry subcircuit for sky130_fd_sc_hd__or3b_2 abstract view
.subckt sky130_fd_sc_hd__or3b_2 A B C_N VGND VNB VPB VPWR X
.ends

* Black-box entry subcircuit for sky130_fd_sc_hd__and3b_4 abstract view
.subckt sky130_fd_sc_hd__and3b_4 A_N B C VGND VNB VPB VPWR X
.ends

* Black-box entry subcircuit for sky130_fd_sc_hd__a21boi_1 abstract view
.subckt sky130_fd_sc_hd__a21boi_1 A1 A2 B1_N VGND VNB VPB VPWR Y
.ends

* Black-box entry subcircuit for sky130_fd_sc_hd__nor4_1 abstract view
.subckt sky130_fd_sc_hd__nor4_1 A B C D VGND VNB VPB VPWR Y
.ends

* Black-box entry subcircuit for sky130_fd_sc_hd__o21ba_1 abstract view
.subckt sky130_fd_sc_hd__o21ba_1 A1 A2 B1_N VGND VNB VPB VPWR X
.ends

* Black-box entry subcircuit for sky130_fd_sc_hd__xnor2_1 abstract view
.subckt sky130_fd_sc_hd__xnor2_1 A B VGND VNB VPB VPWR Y
.ends

* Black-box entry subcircuit for sky130_fd_sc_hd__nand4_1 abstract view
.subckt sky130_fd_sc_hd__nand4_1 A B C D VGND VNB VPB VPWR Y
.ends

* Black-box entry subcircuit for sky130_fd_sc_hd__and4_1 abstract view
.subckt sky130_fd_sc_hd__and4_1 A B C D VGND VNB VPB VPWR X
.ends

* Black-box entry subcircuit for sky130_fd_sc_hd__a221o_2 abstract view
.subckt sky130_fd_sc_hd__a221o_2 A1 A2 B1 B2 C1 VGND VNB VPB VPWR X
.ends

* Black-box entry subcircuit for sky130_fd_sc_hd__clkinv_2 abstract view
.subckt sky130_fd_sc_hd__clkinv_2 A VGND VNB VPB VPWR Y
.ends

* Black-box entry subcircuit for sky130_fd_sc_hd__o2111a_1 abstract view
.subckt sky130_fd_sc_hd__o2111a_1 A1 A2 B1 C1 D1 VGND VNB VPB VPWR X
.ends

* Black-box entry subcircuit for sky130_fd_sc_hd__a21oi_1 abstract view
.subckt sky130_fd_sc_hd__a21oi_1 A1 A2 B1 VGND VNB VPB VPWR Y
.ends

* Black-box entry subcircuit for sky130_fd_sc_hd__nand2_4 abstract view
.subckt sky130_fd_sc_hd__nand2_4 A B VGND VNB VPB VPWR Y
.ends

* Black-box entry subcircuit for sky130_fd_sc_hd__a221oi_1 abstract view
.subckt sky130_fd_sc_hd__a221oi_1 A1 A2 B1 B2 C1 VGND VNB VPB VPWR Y
.ends

* Black-box entry subcircuit for sky130_fd_sc_hd__buf_2 abstract view
.subckt sky130_fd_sc_hd__buf_2 A VGND VNB VPB VPWR X
.ends

* Black-box entry subcircuit for sky130_fd_sc_hd__a2111o_2 abstract view
.subckt sky130_fd_sc_hd__a2111o_2 A1 A2 B1 C1 D1 VGND VNB VPB VPWR X
.ends

* Black-box entry subcircuit for sky130_fd_sc_hd__and4_2 abstract view
.subckt sky130_fd_sc_hd__and4_2 A B C D VGND VNB VPB VPWR X
.ends

* Black-box entry subcircuit for sky130_fd_sc_hd__o211ai_1 abstract view
.subckt sky130_fd_sc_hd__o211ai_1 A1 A2 B1 C1 VGND VNB VPB VPWR Y
.ends

* Black-box entry subcircuit for sky130_fd_sc_hd__a311o_1 abstract view
.subckt sky130_fd_sc_hd__a311o_1 A1 A2 A3 B1 C1 VGND VNB VPB VPWR X
.ends

* Black-box entry subcircuit for sky130_fd_sc_hd__o221a_4 abstract view
.subckt sky130_fd_sc_hd__o221a_4 A1 A2 B1 B2 C1 VGND VNB VPB VPWR X
.ends

* Black-box entry subcircuit for sky130_fd_sc_hd__nor4_2 abstract view
.subckt sky130_fd_sc_hd__nor4_2 A B C D VGND VNB VPB VPWR Y
.ends

* Black-box entry subcircuit for sky130_fd_sc_hd__a211oi_1 abstract view
.subckt sky130_fd_sc_hd__a211oi_1 A1 A2 B1 C1 VGND VNB VPB VPWR Y
.ends

* Black-box entry subcircuit for sky130_fd_sc_hd__a2111o_4 abstract view
.subckt sky130_fd_sc_hd__a2111o_4 A1 A2 B1 C1 D1 VGND VNB VPB VPWR X
.ends

* Black-box entry subcircuit for sky130_fd_sc_hd__mux2_4 abstract view
.subckt sky130_fd_sc_hd__mux2_4 A0 A1 S VGND VNB VPB VPWR X
.ends

* Black-box entry subcircuit for sky130_fd_sc_hd__nor3_1 abstract view
.subckt sky130_fd_sc_hd__nor3_1 A B C VGND VNB VPB VPWR Y
.ends

* Black-box entry subcircuit for sky130_fd_sc_hd__or4bb_1 abstract view
.subckt sky130_fd_sc_hd__or4bb_1 A B C_N D_N VGND VNB VPB VPWR X
.ends

* Black-box entry subcircuit for sky130_fd_sc_hd__dfxtp_1 abstract view
.subckt sky130_fd_sc_hd__dfxtp_1 CLK D VGND VNB VPB VPWR Q
.ends

* Black-box entry subcircuit for sky130_fd_sc_hd__a221oi_4 abstract view
.subckt sky130_fd_sc_hd__a221oi_4 A1 A2 B1 B2 C1 VGND VNB VPB VPWR Y
.ends

* Black-box entry subcircuit for sky130_fd_sc_hd__and2b_4 abstract view
.subckt sky130_fd_sc_hd__and2b_4 A_N B VGND VNB VPB VPWR X
.ends

* Black-box entry subcircuit for sky130_fd_sc_hd__nand3b_4 abstract view
.subckt sky130_fd_sc_hd__nand3b_4 A_N B C VGND VNB VPB VPWR Y
.ends

* Black-box entry subcircuit for sky130_fd_sc_hd__nand2b_1 abstract view
.subckt sky130_fd_sc_hd__nand2b_1 A_N B VGND VNB VPB VPWR Y
.ends

* Black-box entry subcircuit for sky130_fd_sc_hd__dfrtn_1 abstract view
.subckt sky130_fd_sc_hd__dfrtn_1 CLK_N D RESET_B VGND VNB VPB VPWR Q
.ends

* Black-box entry subcircuit for sky130_fd_sc_hd__o21ai_1 abstract view
.subckt sky130_fd_sc_hd__o21ai_1 A1 A2 B1 VGND VNB VPB VPWR Y
.ends

* Black-box entry subcircuit for sky130_fd_sc_hd__a221o_4 abstract view
.subckt sky130_fd_sc_hd__a221o_4 A1 A2 B1 B2 C1 VGND VNB VPB VPWR X
.ends

* Black-box entry subcircuit for sky130_fd_sc_hd__a21oi_2 abstract view
.subckt sky130_fd_sc_hd__a21oi_2 A1 A2 B1 VGND VNB VPB VPWR Y
.ends

* Black-box entry subcircuit for sky130_fd_sc_hd__o211a_2 abstract view
.subckt sky130_fd_sc_hd__o211a_2 A1 A2 B1 C1 VGND VNB VPB VPWR X
.ends

* Black-box entry subcircuit for sky130_fd_sc_hd__a21bo_1 abstract view
.subckt sky130_fd_sc_hd__a21bo_1 A1 A2 B1_N VGND VNB VPB VPWR X
.ends

* Black-box entry subcircuit for sky130_fd_sc_hd__and4b_4 abstract view
.subckt sky130_fd_sc_hd__and4b_4 A_N B C D VGND VNB VPB VPWR X
.ends

* Black-box entry subcircuit for sky130_fd_sc_hd__mux2_2 abstract view
.subckt sky130_fd_sc_hd__mux2_2 A0 A1 S VGND VNB VPB VPWR X
.ends

* Black-box entry subcircuit for sky130_fd_sc_hd__or4b_2 abstract view
.subckt sky130_fd_sc_hd__or4b_2 A B C D_N VGND VNB VPB VPWR X
.ends

* Black-box entry subcircuit for sky130_fd_sc_hd__nor3_2 abstract view
.subckt sky130_fd_sc_hd__nor3_2 A B C VGND VNB VPB VPWR Y
.ends

* Black-box entry subcircuit for sky130_fd_sc_hd__a211o_2 abstract view
.subckt sky130_fd_sc_hd__a211o_2 A1 A2 B1 C1 VGND VNB VPB VPWR X
.ends

* Black-box entry subcircuit for sky130_fd_sc_hd__o221a_2 abstract view
.subckt sky130_fd_sc_hd__o221a_2 A1 A2 B1 B2 C1 VGND VNB VPB VPWR X
.ends

* Black-box entry subcircuit for sky130_fd_sc_hd__o2bb2a_1 abstract view
.subckt sky130_fd_sc_hd__o2bb2a_1 A1_N A2_N B1 B2 VGND VNB VPB VPWR X
.ends

* Black-box entry subcircuit for sky130_fd_sc_hd__dlymetal6s2s_1 abstract view
.subckt sky130_fd_sc_hd__dlymetal6s2s_1 A VGND VNB VPB VPWR X
.ends

* Black-box entry subcircuit for sky130_fd_sc_hd__and3_2 abstract view
.subckt sky130_fd_sc_hd__and3_2 A B C VGND VNB VPB VPWR X
.ends

* Black-box entry subcircuit for sky130_fd_sc_hd__a21oi_4 abstract view
.subckt sky130_fd_sc_hd__a21oi_4 A1 A2 B1 VGND VNB VPB VPWR Y
.ends

* Black-box entry subcircuit for sky130_fd_sc_hd__a32o_1 abstract view
.subckt sky130_fd_sc_hd__a32o_1 A1 A2 A3 B1 B2 VGND VNB VPB VPWR X
.ends

* Black-box entry subcircuit for sky130_fd_sc_hd__o21ai_4 abstract view
.subckt sky130_fd_sc_hd__o21ai_4 A1 A2 B1 VGND VNB VPB VPWR Y
.ends

* Black-box entry subcircuit for sky130_fd_sc_hd__a41o_4 abstract view
.subckt sky130_fd_sc_hd__a41o_4 A1 A2 A3 A4 B1 VGND VNB VPB VPWR X
.ends

* Black-box entry subcircuit for sky130_fd_sc_hd__nand4b_1 abstract view
.subckt sky130_fd_sc_hd__nand4b_1 A_N B C D VGND VNB VPB VPWR Y
.ends

* Black-box entry subcircuit for sky130_fd_sc_hd__o221ai_1 abstract view
.subckt sky130_fd_sc_hd__o221ai_1 A1 A2 B1 B2 C1 VGND VNB VPB VPWR Y
.ends

* Black-box entry subcircuit for sky130_fd_sc_hd__or4bb_4 abstract view
.subckt sky130_fd_sc_hd__or4bb_4 A B C_N D_N VGND VNB VPB VPWR X
.ends

* Black-box entry subcircuit for sky130_fd_sc_hd__a22oi_1 abstract view
.subckt sky130_fd_sc_hd__a22oi_1 A1 A2 B1 B2 VGND VNB VPB VPWR Y
.ends

* Black-box entry subcircuit for sky130_fd_sc_hd__mux2_8 abstract view
.subckt sky130_fd_sc_hd__mux2_8 A0 A1 S VGND VNB VPB VPWR X
.ends

* Black-box entry subcircuit for sky130_fd_sc_hd__xnor2_4 abstract view
.subckt sky130_fd_sc_hd__xnor2_4 A B VGND VNB VPB VPWR Y
.ends

* Black-box entry subcircuit for sky130_fd_sc_hd__o211ai_4 abstract view
.subckt sky130_fd_sc_hd__o211ai_4 A1 A2 B1 C1 VGND VNB VPB VPWR Y
.ends

* Black-box entry subcircuit for sky130_fd_sc_hd__nor3_4 abstract view
.subckt sky130_fd_sc_hd__nor3_4 A B C VGND VNB VPB VPWR Y
.ends

* Black-box entry subcircuit for sky130_fd_sc_hd__nand3_2 abstract view
.subckt sky130_fd_sc_hd__nand3_2 A B C VGND VNB VPB VPWR Y
.ends

* Black-box entry subcircuit for sky130_fd_sc_hd__and3b_2 abstract view
.subckt sky130_fd_sc_hd__and3b_2 A_N B C VGND VNB VPB VPWR X
.ends

* Black-box entry subcircuit for sky130_fd_sc_hd__nor3b_4 abstract view
.subckt sky130_fd_sc_hd__nor3b_4 A B C_N VGND VNB VPB VPWR Y
.ends

* Black-box entry subcircuit for sky130_fd_sc_hd__inv_6 abstract view
.subckt sky130_fd_sc_hd__inv_6 A VGND VNB VPB VPWR Y
.ends

* Black-box entry subcircuit for sky130_fd_sc_hd__nand3_4 abstract view
.subckt sky130_fd_sc_hd__nand3_4 A B C VGND VNB VPB VPWR Y
.ends

* Black-box entry subcircuit for sky130_fd_sc_hd__xor2_1 abstract view
.subckt sky130_fd_sc_hd__xor2_1 A B VGND VNB VPB VPWR X
.ends

.subckt housekeeping VGND VPWR debug_in debug_mode debug_oeb debug_out irq[0] irq[1]
+ irq[2] mask_rev_in[0] mask_rev_in[10] mask_rev_in[11] mask_rev_in[12] mask_rev_in[13]
+ mask_rev_in[14] mask_rev_in[15] mask_rev_in[16] mask_rev_in[17] mask_rev_in[18]
+ mask_rev_in[19] mask_rev_in[1] mask_rev_in[20] mask_rev_in[21] mask_rev_in[22] mask_rev_in[23]
+ mask_rev_in[24] mask_rev_in[25] mask_rev_in[26] mask_rev_in[27] mask_rev_in[28]
+ mask_rev_in[29] mask_rev_in[2] mask_rev_in[30] mask_rev_in[31] mask_rev_in[3] mask_rev_in[4]
+ mask_rev_in[5] mask_rev_in[6] mask_rev_in[7] mask_rev_in[8] mask_rev_in[9] mgmt_gpio_in[0]
+ mgmt_gpio_in[10] mgmt_gpio_in[11] mgmt_gpio_in[12] mgmt_gpio_in[13] mgmt_gpio_in[14]
+ mgmt_gpio_in[15] mgmt_gpio_in[16] mgmt_gpio_in[17] mgmt_gpio_in[18] mgmt_gpio_in[19]
+ mgmt_gpio_in[1] mgmt_gpio_in[20] mgmt_gpio_in[21] mgmt_gpio_in[22] mgmt_gpio_in[23]
+ mgmt_gpio_in[24] mgmt_gpio_in[25] mgmt_gpio_in[26] mgmt_gpio_in[27] mgmt_gpio_in[28]
+ mgmt_gpio_in[29] mgmt_gpio_in[2] mgmt_gpio_in[30] mgmt_gpio_in[31] mgmt_gpio_in[32]
+ mgmt_gpio_in[33] mgmt_gpio_in[34] mgmt_gpio_in[35] mgmt_gpio_in[36] mgmt_gpio_in[37]
+ mgmt_gpio_in[3] mgmt_gpio_in[4] mgmt_gpio_in[5] mgmt_gpio_in[6] mgmt_gpio_in[7]
+ mgmt_gpio_in[8] mgmt_gpio_in[9] mgmt_gpio_oeb[0] mgmt_gpio_oeb[10] mgmt_gpio_oeb[11]
+ mgmt_gpio_oeb[12] mgmt_gpio_oeb[13] mgmt_gpio_oeb[14] mgmt_gpio_oeb[15] mgmt_gpio_oeb[16]
+ mgmt_gpio_oeb[17] mgmt_gpio_oeb[18] mgmt_gpio_oeb[19] mgmt_gpio_oeb[1] mgmt_gpio_oeb[20]
+ mgmt_gpio_oeb[21] mgmt_gpio_oeb[22] mgmt_gpio_oeb[23] mgmt_gpio_oeb[24] mgmt_gpio_oeb[25]
+ mgmt_gpio_oeb[26] mgmt_gpio_oeb[27] mgmt_gpio_oeb[28] mgmt_gpio_oeb[29] mgmt_gpio_oeb[2]
+ mgmt_gpio_oeb[30] mgmt_gpio_oeb[31] mgmt_gpio_oeb[32] mgmt_gpio_oeb[33] mgmt_gpio_oeb[34]
+ mgmt_gpio_oeb[35] mgmt_gpio_oeb[36] mgmt_gpio_oeb[37] mgmt_gpio_oeb[3] mgmt_gpio_oeb[4]
+ mgmt_gpio_oeb[5] mgmt_gpio_oeb[6] mgmt_gpio_oeb[7] mgmt_gpio_oeb[8] mgmt_gpio_oeb[9]
+ mgmt_gpio_out[0] mgmt_gpio_out[10] mgmt_gpio_out[11] mgmt_gpio_out[12] mgmt_gpio_out[13]
+ mgmt_gpio_out[14] mgmt_gpio_out[15] mgmt_gpio_out[16] mgmt_gpio_out[17] mgmt_gpio_out[18]
+ mgmt_gpio_out[19] mgmt_gpio_out[1] mgmt_gpio_out[20] mgmt_gpio_out[21] mgmt_gpio_out[22]
+ mgmt_gpio_out[23] mgmt_gpio_out[24] mgmt_gpio_out[25] mgmt_gpio_out[26] mgmt_gpio_out[27]
+ mgmt_gpio_out[28] mgmt_gpio_out[29] mgmt_gpio_out[2] mgmt_gpio_out[30] mgmt_gpio_out[31]
+ mgmt_gpio_out[32] mgmt_gpio_out[33] mgmt_gpio_out[34] mgmt_gpio_out[35] mgmt_gpio_out[36]
+ mgmt_gpio_out[37] mgmt_gpio_out[3] mgmt_gpio_out[4] mgmt_gpio_out[5] mgmt_gpio_out[6]
+ mgmt_gpio_out[7] mgmt_gpio_out[8] mgmt_gpio_out[9] pad_flash_clk pad_flash_clk_oeb
+ pad_flash_csb pad_flash_csb_oeb pad_flash_io0_di pad_flash_io0_do pad_flash_io0_ieb
+ pad_flash_io0_oeb pad_flash_io1_di pad_flash_io1_do pad_flash_io1_ieb pad_flash_io1_oeb
+ pll90_sel[0] pll90_sel[1] pll90_sel[2] pll_bypass pll_dco_ena pll_div[0] pll_div[1]
+ pll_div[2] pll_div[3] pll_div[4] pll_ena pll_sel[0] pll_sel[1] pll_sel[2] pll_trim[0]
+ pll_trim[10] pll_trim[11] pll_trim[12] pll_trim[13] pll_trim[14] pll_trim[15] pll_trim[16]
+ pll_trim[17] pll_trim[18] pll_trim[19] pll_trim[1] pll_trim[20] pll_trim[21] pll_trim[22]
+ pll_trim[23] pll_trim[24] pll_trim[25] pll_trim[2] pll_trim[3] pll_trim[4] pll_trim[5]
+ pll_trim[6] pll_trim[7] pll_trim[8] pll_trim[9] porb pwr_ctrl_out[0] pwr_ctrl_out[1]
+ pwr_ctrl_out[2] pwr_ctrl_out[3] qspi_enabled reset ser_rx ser_tx serial_clock serial_data_1
+ serial_data_2 serial_load serial_resetn spi_csb spi_enabled spi_sck spi_sdi spi_sdo
+ spi_sdoenb spimemio_flash_clk spimemio_flash_csb spimemio_flash_io0_di spimemio_flash_io0_do
+ spimemio_flash_io0_oeb spimemio_flash_io1_di spimemio_flash_io1_do spimemio_flash_io1_oeb
+ spimemio_flash_io2_di spimemio_flash_io2_do spimemio_flash_io2_oeb spimemio_flash_io3_di
+ spimemio_flash_io3_do spimemio_flash_io3_oeb trap uart_enabled user_clock usr1_vcc_pwrgood
+ usr1_vdd_pwrgood usr2_vcc_pwrgood usr2_vdd_pwrgood wb_ack_o wb_adr_i[0] wb_adr_i[10]
+ wb_adr_i[11] wb_adr_i[12] wb_adr_i[13] wb_adr_i[14] wb_adr_i[15] wb_adr_i[16] wb_adr_i[17]
+ wb_adr_i[18] wb_adr_i[19] wb_adr_i[1] wb_adr_i[20] wb_adr_i[21] wb_adr_i[22] wb_adr_i[23]
+ wb_adr_i[24] wb_adr_i[25] wb_adr_i[26] wb_adr_i[27] wb_adr_i[28] wb_adr_i[29] wb_adr_i[2]
+ wb_adr_i[30] wb_adr_i[31] wb_adr_i[3] wb_adr_i[4] wb_adr_i[5] wb_adr_i[6] wb_adr_i[7]
+ wb_adr_i[8] wb_adr_i[9] wb_clk_i wb_cyc_i wb_dat_i[0] wb_dat_i[10] wb_dat_i[11]
+ wb_dat_i[12] wb_dat_i[13] wb_dat_i[14] wb_dat_i[15] wb_dat_i[16] wb_dat_i[17] wb_dat_i[18]
+ wb_dat_i[19] wb_dat_i[1] wb_dat_i[20] wb_dat_i[21] wb_dat_i[22] wb_dat_i[23] wb_dat_i[24]
+ wb_dat_i[25] wb_dat_i[26] wb_dat_i[27] wb_dat_i[28] wb_dat_i[29] wb_dat_i[2] wb_dat_i[30]
+ wb_dat_i[31] wb_dat_i[3] wb_dat_i[4] wb_dat_i[5] wb_dat_i[6] wb_dat_i[7] wb_dat_i[8]
+ wb_dat_i[9] wb_dat_o[0] wb_dat_o[10] wb_dat_o[11] wb_dat_o[12] wb_dat_o[13] wb_dat_o[14]
+ wb_dat_o[15] wb_dat_o[16] wb_dat_o[17] wb_dat_o[18] wb_dat_o[19] wb_dat_o[1] wb_dat_o[20]
+ wb_dat_o[21] wb_dat_o[22] wb_dat_o[23] wb_dat_o[24] wb_dat_o[25] wb_dat_o[26] wb_dat_o[27]
+ wb_dat_o[28] wb_dat_o[29] wb_dat_o[2] wb_dat_o[30] wb_dat_o[31] wb_dat_o[3] wb_dat_o[4]
+ wb_dat_o[5] wb_dat_o[6] wb_dat_o[7] wb_dat_o[8] wb_dat_o[9] wb_rstn_i wb_sel_i[0]
+ wb_sel_i[1] wb_sel_i[2] wb_sel_i[3] wb_stb_i wb_we_i
XFILLER_67_520 VGND VGND VPWR VPWR sky130_ef_sc_hd__decap_12
XFILLER_79_391 VGND VGND VPWR VPWR sky130_fd_sc_hd__fill_1
XFILLER_100_138 VGND VGND VPWR VPWR sky130_fd_sc_hd__fill_2
XFILLER_82_556 VGND VGND VPWR VPWR sky130_fd_sc_hd__decap_4
X_6914_ _7010_/CLK _6914_/D fanout498/X VGND VGND VPWR VPWR _6914_/Q sky130_fd_sc_hd__dfstp_2
XFILLER_35_461 VGND VGND VPWR VPWR sky130_ef_sc_hd__decap_12
XFILLER_82_589 VGND VGND VPWR VPWR sky130_fd_sc_hd__fill_2
X_6845_ _7069_/CLK _6845_/D fanout516/X VGND VGND VPWR VPWR _6845_/Q sky130_fd_sc_hd__dfrtp_4
XFILLER_52_29 VGND VGND VPWR VPWR sky130_fd_sc_hd__decap_6
XFILLER_23_678 VGND VGND VPWR VPWR sky130_fd_sc_hd__decap_4
XFILLER_168_18 VGND VGND VPWR VPWR sky130_fd_sc_hd__decap_8
XFILLER_10_306 VGND VGND VPWR VPWR sky130_fd_sc_hd__fill_2
XFILLER_50_475 VGND VGND VPWR VPWR sky130_fd_sc_hd__fill_1
XFILLER_168_29 VGND VGND VPWR VPWR sky130_fd_sc_hd__decap_4
X_6776_ _6881_/CLK _6776_/D fanout523/X VGND VGND VPWR VPWR _7195_/A sky130_fd_sc_hd__dfrtp_1
X_3988_ hold499/X _5491_/A1 _3992_/S VGND VGND VPWR VPWR _3988_/X sky130_fd_sc_hd__mux2_1
XFILLER_50_486 VGND VGND VPWR VPWR sky130_ef_sc_hd__decap_12
XFILLER_148_330 VGND VGND VPWR VPWR sky130_ef_sc_hd__decap_12
X_5727_ _7005_/Q _5912_/A2 _5618_/X _6877_/Q VGND VGND VPWR VPWR _5727_/X sky130_fd_sc_hd__a22o_1
XFILLER_136_525 VGND VGND VPWR VPWR sky130_fd_sc_hd__decap_6
X_5658_ _6802_/Q _5639_/X _5642_/X _6978_/Q _5641_/Y VGND VGND VPWR VPWR _5658_/X
+ sky130_fd_sc_hd__a221o_1
XFILLER_163_322 VGND VGND VPWR VPWR sky130_fd_sc_hd__decap_4
XFILLER_184_17 VGND VGND VPWR VPWR sky130_fd_sc_hd__decap_4
XFILLER_136_569 VGND VGND VPWR VPWR sky130_ef_sc_hd__decap_12
X_4609_ _4614_/A _4609_/B _4613_/C VGND VGND VPWR VPWR _4701_/A sky130_fd_sc_hd__or3b_4
XFILLER_191_664 VGND VGND VPWR VPWR sky130_fd_sc_hd__decap_8
XFILLER_190_141 VGND VGND VPWR VPWR sky130_fd_sc_hd__fill_2
X_5589_ _5609_/B _5981_/A _5977_/A _5565_/X _7098_/Q VGND VGND VPWR VPWR _7098_/D
+ sky130_fd_sc_hd__o32a_1
XFILLER_151_517 VGND VGND VPWR VPWR sky130_ef_sc_hd__decap_12
Xhold340 _5229_/X VGND VGND VPWR VPWR _6804_/D sky130_fd_sc_hd__dlygate4sd3_1
XFILLER_117_33 VGND VGND VPWR VPWR sky130_fd_sc_hd__decap_4
XFILLER_190_185 VGND VGND VPWR VPWR sky130_fd_sc_hd__decap_8
Xhold351 _6909_/Q VGND VGND VPWR VPWR hold351/X sky130_fd_sc_hd__dlygate4sd3_1
Xhold362 _5364_/X VGND VGND VPWR VPWR _6924_/D sky130_fd_sc_hd__dlygate4sd3_1
Xhold373 _6504_/Q VGND VGND VPWR VPWR hold373/X sky130_fd_sc_hd__dlygate4sd3_1
XFILLER_117_55 VGND VGND VPWR VPWR sky130_fd_sc_hd__fill_1
Xhold384 _5175_/X VGND VGND VPWR VPWR _6759_/D sky130_fd_sc_hd__dlygate4sd3_1
XFILLER_104_455 VGND VGND VPWR VPWR sky130_fd_sc_hd__decap_4
Xhold395 hold395/A VGND VGND VPWR VPWR hold395/X sky130_fd_sc_hd__dlygate4sd3_1
XFILLER_132_775 VGND VGND VPWR VPWR sky130_fd_sc_hd__fill_2
XFILLER_104_477 VGND VGND VPWR VPWR sky130_ef_sc_hd__decap_12
XFILLER_77_328 VGND VGND VPWR VPWR sky130_fd_sc_hd__decap_8
XFILLER_58_520 VGND VGND VPWR VPWR sky130_ef_sc_hd__decap_12
XFILLER_92_309 VGND VGND VPWR VPWR sky130_ef_sc_hd__decap_12
Xhold1040 _6819_/Q VGND VGND VPWR VPWR _5246_/A0 sky130_fd_sc_hd__dlygate4sd3_1
XFILLER_133_54 VGND VGND VPWR VPWR sky130_fd_sc_hd__fill_2
Xhold1051 _5480_/X VGND VGND VPWR VPWR _7027_/D sky130_fd_sc_hd__dlygate4sd3_1
Xhold1062 _6986_/Q VGND VGND VPWR VPWR _5434_/A0 sky130_fd_sc_hd__dlygate4sd3_1
XFILLER_58_597 VGND VGND VPWR VPWR sky130_fd_sc_hd__fill_1
XFILLER_133_87 VGND VGND VPWR VPWR sky130_fd_sc_hd__fill_1
XFILLER_45_225 VGND VGND VPWR VPWR sky130_fd_sc_hd__fill_2
Xhold1073 _7002_/Q VGND VGND VPWR VPWR _5452_/A0 sky130_fd_sc_hd__dlygate4sd3_1
XTAP_2501 VGND VPWR sky130_fd_sc_hd__tapvpwrvgnd_1
Xhold1084 _5470_/X VGND VGND VPWR VPWR _7018_/D sky130_fd_sc_hd__dlygate4sd3_1
XFILLER_172_3 VGND VGND VPWR VPWR sky130_ef_sc_hd__decap_12
XANTENNA_202 _5918_/A2 VGND VGND VPWR VPWR sky130_fd_sc_hd__diode_2
Xhold1095 _7022_/Q VGND VGND VPWR VPWR _5474_/A0 sky130_fd_sc_hd__dlygate4sd3_1
XTAP_2512 VGND VPWR sky130_fd_sc_hd__tapvpwrvgnd_1
XANTENNA_213 _5460_/A VGND VGND VPWR VPWR sky130_fd_sc_hd__diode_2
XTAP_2523 VGND VPWR sky130_fd_sc_hd__tapvpwrvgnd_1
XTAP_2534 VGND VPWR sky130_fd_sc_hd__tapvpwrvgnd_1
XFILLER_26_41 VGND VGND VPWR VPWR sky130_ef_sc_hd__decap_12
XTAP_1800 VGND VPWR sky130_fd_sc_hd__tapvpwrvgnd_1
XTAP_2545 VGND VPWR sky130_fd_sc_hd__tapvpwrvgnd_1
XFILLER_61_729 VGND VGND VPWR VPWR sky130_ef_sc_hd__decap_12
XTAP_1811 VGND VPWR sky130_fd_sc_hd__tapvpwrvgnd_1
XTAP_2556 VGND VPWR sky130_fd_sc_hd__tapvpwrvgnd_1
XTAP_1822 VGND VPWR sky130_fd_sc_hd__tapvpwrvgnd_1
XTAP_2567 VGND VPWR sky130_fd_sc_hd__tapvpwrvgnd_1
XTAP_1833 VGND VPWR sky130_fd_sc_hd__tapvpwrvgnd_1
XTAP_2578 VGND VPWR sky130_fd_sc_hd__tapvpwrvgnd_1
XFILLER_26_85 VGND VGND VPWR VPWR sky130_fd_sc_hd__decap_4
XTAP_1844 VGND VPWR sky130_fd_sc_hd__tapvpwrvgnd_1
XTAP_2589 VGND VPWR sky130_fd_sc_hd__tapvpwrvgnd_1
XFILLER_14_645 VGND VGND VPWR VPWR sky130_fd_sc_hd__fill_2
XTAP_1855 VGND VPWR sky130_fd_sc_hd__tapvpwrvgnd_1