* NGSPICE file created from mgmt_protect.ext - technology: sky130A

* Black-box entry subcircuit for sky130_fd_sc_hd__decap_6 abstract view
.subckt sky130_fd_sc_hd__decap_6 VGND VNB VPB VPWR
.ends

* Black-box entry subcircuit for sky130_fd_sc_hd__diode_2 abstract view
.subckt sky130_fd_sc_hd__diode_2 DIODE VGND VNB VPB VPWR
.ends

* Black-box entry subcircuit for sky130_fd_sc_hd__tapvpwrvgnd_1 abstract view
.subckt sky130_fd_sc_hd__tapvpwrvgnd_1 VGND VPWR
.ends

* Black-box entry subcircuit for sky130_ef_sc_hd__decap_12 abstract view
.subckt sky130_ef_sc_hd__decap_12 VGND VNB VPB VPWR
.ends

* Black-box entry subcircuit for sky130_fd_sc_hd__decap_3 abstract view
.subckt sky130_fd_sc_hd__decap_3 VGND VNB VPB VPWR
.ends

* Black-box entry subcircuit for sky130_fd_sc_hd__decap_4 abstract view
.subckt sky130_fd_sc_hd__decap_4 VGND VNB VPB VPWR
.ends

* Black-box entry subcircuit for sky130_fd_sc_hd__fill_2 abstract view
.subckt sky130_fd_sc_hd__fill_2 VGND VNB VPB VPWR
.ends

* Black-box entry subcircuit for sky130_fd_sc_hd__fill_1 abstract view
.subckt sky130_fd_sc_hd__fill_1 VGND VNB VPB VPWR
.ends

* Black-box entry subcircuit for sky130_fd_sc_hd__decap_8 abstract view
.subckt sky130_fd_sc_hd__decap_8 VGND VNB VPB VPWR
.ends

* Black-box entry subcircuit for sky130_fd_sc_hd__buf_6 abstract view
.subckt sky130_fd_sc_hd__buf_6 A VGND VNB VPB VPWR X
.ends

* Black-box entry subcircuit for sky130_fd_sc_hd__and2_4 abstract view
.subckt sky130_fd_sc_hd__and2_4 A B VGND VNB VPB VPWR X
.ends

* Black-box entry subcircuit for sky130_fd_sc_hd__and3b_4 abstract view
.subckt sky130_fd_sc_hd__and3b_4 A_N B C VGND VNB VPB VPWR X
.ends

* Black-box entry subcircuit for sky130_fd_sc_hd__and2_2 abstract view
.subckt sky130_fd_sc_hd__and2_2 A B VGND VNB VPB VPWR X
.ends

* Black-box entry subcircuit for sky130_fd_sc_hd__nand2_4 abstract view
.subckt sky130_fd_sc_hd__nand2_4 A B VGND VNB VPB VPWR Y
.ends

* Black-box entry subcircuit for sky130_fd_sc_hd__buf_8 abstract view
.subckt sky130_fd_sc_hd__buf_8 A VGND VNB VPB VPWR X
.ends

* Black-box entry subcircuit for sky130_fd_sc_hd__clkinv_2 abstract view
.subckt sky130_fd_sc_hd__clkinv_2 A VGND VNB VPB VPWR Y
.ends

* Black-box entry subcircuit for sky130_fd_sc_hd__nand2_2 abstract view
.subckt sky130_fd_sc_hd__nand2_2 A B VGND VNB VPB VPWR Y
.ends

* Black-box entry subcircuit for sky130_fd_sc_hd__clkbuf_4 abstract view
.subckt sky130_fd_sc_hd__clkbuf_4 A VGND VNB VPB VPWR X
.ends

* Black-box entry subcircuit for sky130_fd_sc_hd__inv_2 abstract view
.subckt sky130_fd_sc_hd__inv_2 A VGND VNB VPB VPWR Y
.ends

* Black-box entry subcircuit for sky130_fd_sc_hd__buf_4 abstract view
.subckt sky130_fd_sc_hd__buf_4 A VGND VNB VPB VPWR X
.ends

* Black-box entry subcircuit for sky130_fd_sc_hd__and3b_2 abstract view
.subckt sky130_fd_sc_hd__and3b_2 A_N B C VGND VNB VPB VPWR X
.ends

* Black-box entry subcircuit for sky130_fd_sc_hd__and2_1 abstract view
.subckt sky130_fd_sc_hd__and2_1 A B VGND VNB VPB VPWR X
.ends

* Black-box entry subcircuit for sky130_fd_sc_hd__nand2_8 abstract view
.subckt sky130_fd_sc_hd__nand2_8 A B VGND VNB VPB VPWR Y
.ends

* Black-box entry subcircuit for sky130_fd_sc_hd__inv_4 abstract view
.subckt sky130_fd_sc_hd__inv_4 A VGND VNB VPB VPWR Y
.ends

* Black-box entry subcircuit for sky130_fd_sc_hd__clkbuf_8 abstract view
.subckt sky130_fd_sc_hd__clkbuf_8 A VGND VNB VPB VPWR X
.ends

* Black-box entry subcircuit for sky130_fd_sc_hd__nand2_1 abstract view
.subckt sky130_fd_sc_hd__nand2_1 A B VGND VNB VPB VPWR Y
.ends

* Black-box entry subcircuit for sky130_fd_sc_hd__clkinv_4 abstract view
.subckt sky130_fd_sc_hd__clkinv_4 A VGND VNB VPB VPWR Y
.ends

* Black-box entry subcircuit for sky130_fd_sc_hd__and3b_1 abstract view
.subckt sky130_fd_sc_hd__and3b_1 A_N B C VGND VNB VPB VPWR X
.ends

* Black-box entry subcircuit for mprj2_logic_high abstract view
.subckt mprj2_logic_high HI vccd2 vssd2
.ends

* Black-box entry subcircuit for mprj_logic_high abstract view
.subckt mprj_logic_high HI[0] HI[100] HI[101] HI[102] HI[103] HI[104] HI[105] HI[106]
+ HI[107] HI[108] HI[109] HI[10] HI[110] HI[111] HI[112] HI[113] HI[114] HI[115] HI[116]
+ HI[117] HI[118] HI[119] HI[11] HI[120] HI[121] HI[122] HI[123] HI[124] HI[125] HI[126]
+ HI[127] HI[128] HI[129] HI[12] HI[130] HI[131] HI[132] HI[133] HI[134] HI[135] HI[136]
+ HI[137] HI[138] HI[139] HI[13] HI[140] HI[141] HI[142] HI[143] HI[144] HI[145] HI[146]
+ HI[147] HI[148] HI[149] HI[14] HI[150] HI[151] HI[152] HI[153] HI[154] HI[155] HI[156]
+ HI[157] HI[158] HI[159] HI[15] HI[160] HI[161] HI[162] HI[163] HI[164] HI[165] HI[166]
+ HI[167] HI[168] HI[169] HI[16] HI[170] HI[171] HI[172] HI[173] HI[174] HI[175] HI[176]
+ HI[177] HI[178] HI[179] HI[17] HI[180] HI[181] HI[182] HI[183] HI[184] HI[185] HI[186]
+ HI[187] HI[188] HI[189] HI[18] HI[190] HI[191] HI[192] HI[193] HI[194] HI[195] HI[196]
+ HI[197] HI[198] HI[199] HI[19] HI[1] HI[200] HI[201] HI[202] HI[203] HI[204] HI[205]
+ HI[206] HI[207] HI[208] HI[209] HI[20] HI[210] HI[211] HI[212] HI[213] HI[214] HI[215]
+ HI[216] HI[217] HI[218] HI[219] HI[21] HI[220] HI[221] HI[222] HI[223] HI[224] HI[225]
+ HI[226] HI[227] HI[228] HI[229] HI[22] HI[230] HI[231] HI[232] HI[233] HI[234] HI[235]
+ HI[236] HI[237] HI[238] HI[239] HI[23] HI[240] HI[241] HI[242] HI[243] HI[244] HI[245]
+ HI[246] HI[247] HI[248] HI[249] HI[24] HI[250] HI[251] HI[252] HI[253] HI[254] HI[255]
+ HI[256] HI[257] HI[258] HI[259] HI[25] HI[260] HI[261] HI[262] HI[263] HI[264] HI[265]
+ HI[266] HI[267] HI[268] HI[269] HI[26] HI[270] HI[271] HI[272] HI[273] HI[274] HI[275]
+ HI[276] HI[277] HI[278] HI[279] HI[27] HI[280] HI[281] HI[282] HI[283] HI[284] HI[285]
+ HI[286] HI[287] HI[288] HI[289] HI[28] HI[290] HI[291] HI[292] HI[293] HI[294] HI[295]
+ HI[296] HI[297] HI[298] HI[299] HI[29] HI[2] HI[300] HI[301] HI[302] HI[303] HI[304]
+ HI[305] HI[306] HI[307] HI[308] HI[309] HI[30] HI[310] HI[311] HI[312] HI[313] HI[314]
+ HI[315] HI[316] HI[317] HI[318] HI[319] HI[31] HI[320] HI[321] HI[322] HI[323] HI[324]
+ HI[325] HI[326] HI[327] HI[328] HI[329] HI[32] HI[330] HI[331] HI[332] HI[333] HI[334]
+ HI[335] HI[336] HI[337] HI[338] HI[339] HI[33] HI[340] HI[341] HI[342] HI[343] HI[344]
+ HI[345] HI[346] HI[347] HI[348] HI[349] HI[34] HI[350] HI[351] HI[352] HI[353] HI[354]
+ HI[355] HI[356] HI[357] HI[358] HI[359] HI[35] HI[360] HI[361] HI[362] HI[363] HI[364]
+ HI[365] HI[366] HI[367] HI[368] HI[369] HI[36] HI[370] HI[371] HI[372] HI[373] HI[374]
+ HI[375] HI[376] HI[377] HI[378] HI[379] HI[37] HI[380] HI[381] HI[382] HI[383] HI[384]
+ HI[385] HI[386] HI[387] HI[388] HI[389] HI[38] HI[390] HI[391] HI[392] HI[393] HI[394]
+ HI[395] HI[396] HI[397] HI[398] HI[399] HI[39] HI[3] HI[400] HI[401] HI[402] HI[403]
+ HI[404] HI[405] HI[406] HI[407] HI[408] HI[409] HI[40] HI[410] HI[411] HI[412] HI[413]
+ HI[414] HI[415] HI[416] HI[417] HI[418] HI[419] HI[41] HI[420] HI[421] HI[422] HI[423]
+ HI[424] HI[425] HI[426] HI[427] HI[428] HI[429] HI[42] HI[430] HI[431] HI[432] HI[433]
+ HI[434] HI[435] HI[436] HI[437] HI[438] HI[439] HI[43] HI[440] HI[441] HI[442] HI[443]
+ HI[444] HI[445] HI[446] HI[447] HI[448] HI[449] HI[44] HI[450] HI[451] HI[452] HI[453]
+ HI[454] HI[455] HI[456] HI[457] HI[458] HI[459] HI[45] HI[460] HI[461] HI[462] HI[46]
+ HI[47] HI[48] HI[49] HI[4] HI[50] HI[51] HI[52] HI[53] HI[54] HI[55] HI[56] HI[57]
+ HI[58] HI[59] HI[5] HI[60] HI[61] HI[62] HI[63] HI[64] HI[65] HI[66] HI[67] HI[68]
+ HI[69] HI[6] HI[70] HI[71] HI[72] HI[73] HI[74] HI[75] HI[76] HI[77] HI[78] HI[79]
+ HI[7] HI[80] HI[81] HI[82] HI[83] HI[84] HI[85] HI[86] HI[87] HI[88] HI[89] HI[8]
+ HI[90] HI[91] HI[92] HI[93] HI[94] HI[95] HI[96] HI[97] HI[98] HI[99] HI[9] vccd1
+ vssd1
.ends

* Black-box entry subcircuit for mgmt_protect_hv abstract view
.subckt mgmt_protect_hv vccd vssd vdda1 vssa1 vdda2 vssa2 mprj2_vdd_logic1 mprj_vdd_logic1
.ends

* Black-box entry subcircuit for sky130_fd_sc_hd__and2b_2 abstract view
.subckt sky130_fd_sc_hd__and2b_2 A_N B VGND VNB VPB VPWR X
.ends

.subckt mgmt_protect caravel_clk caravel_clk2 caravel_rstn la_data_in_core[0] la_data_in_core[100]
+ la_data_in_core[101] la_data_in_core[102] la_data_in_core[103] la_data_in_core[104]
+ la_data_in_core[105] la_data_in_core[106] la_data_in_core[107] la_data_in_core[108]
+ la_data_in_core[109] la_data_in_core[10] la_data_in_core[110] la_data_in_core[111]
+ la_data_in_core[112] la_data_in_core[113] la_data_in_core[114] la_data_in_core[115]
+ la_data_in_core[116] la_data_in_core[117] la_data_in_core[118] la_data_in_core[119]
+ la_data_in_core[11] la_data_in_core[120] la_data_in_core[121] la_data_in_core[122]
+ la_data_in_core[123] la_data_in_core[124] la_data_in_core[125] la_data_in_core[126]
+ la_data_in_core[127] la_data_in_core[12] la_data_in_core[13] la_data_in_core[14]
+ la_data_in_core[15] la_data_in_core[16] la_data_in_core[17] la_data_in_core[18]
+ la_data_in_core[19] la_data_in_core[1] la_data_in_core[20] la_data_in_core[21] la_data_in_core[22]
+ la_data_in_core[23] la_data_in_core[24] la_data_in_core[25] la_data_in_core[26]
+ la_data_in_core[27] la_data_in_core[28] la_data_in_core[29] la_data_in_core[2] la_data_in_core[30]
+ la_data_in_core[31] la_data_in_core[32] la_data_in_core[33] la_data_in_core[34]
+ la_data_in_core[35] la_data_in_core[36] la_data_in_core[37] la_data_in_core[38]
+ la_data_in_core[39] la_data_in_core[3] la_data_in_core[40] la_data_in_core[41] la_data_in_core[42]
+ la_data_in_core[43] la_data_in_core[44] la_data_in_core[45] la_data_in_core[46]
+ la_data_in_core[47] la_data_in_core[48] la_data_in_core[49] la_data_in_core[4] la_data_in_core[50]
+ la_data_in_core[51] la_data_in_core[52] la_data_in_core[53] la_data_in_core[54]
+ la_data_in_core[55] la_data_in_core[56] la_data_in_core[57] la_data_in_core[58]
+ la_data_in_core[59] la_data_in_core[5] la_data_in_core[60] la_data_in_core[61] la_data_in_core[62]
+ la_data_in_core[63] la_data_in_core[64] la_data_in_core[65] la_data_in_core[66]
+ la_data_in_core[67] la_data_in_core[68] la_data_in_core[69] la_data_in_core[6] la_data_in_core[70]
+ la_data_in_core[71] la_data_in_core[72] la_data_in_core[73] la_data_in_core[74]
+ la_data_in_core[75] la_data_in_core[76] la_data_in_core[77] la_data_in_core[78]
+ la_data_in_core[79] la_data_in_core[7] la_data_in_core[80] la_data_in_core[81] la_data_in_core[82]
+ la_data_in_core[83] la_data_in_core[84] la_data_in_core[85] la_data_in_core[86]
+ la_data_in_core[87] la_data_in_core[88] la_data_in_core[89] la_data_in_core[8] la_data_in_core[90]
+ la_data_in_core[91] la_data_in_core[92] la_data_in_core[93] la_data_in_core[94]
+ la_data_in_core[95] la_data_in_core[96] la_data_in_core[97] la_data_in_core[98]
+ la_data_in_core[99] la_data_in_core[9] la_data_in_mprj[0] la_data_in_mprj[100] la_data_in_mprj[101]
+ la_data_in_mprj[102] la_data_in_mprj[103] la_data_in_mprj[104] la_data_in_mprj[105]
+ la_data_in_mprj[106] la_data_in_mprj[107] la_data_in_mprj[108] la_data_in_mprj[109]
+ la_data_in_mprj[10] la_data_in_mprj[110] la_data_in_mprj[111] la_data_in_mprj[112]
+ la_data_in_mprj[113] la_data_in_mprj[114] la_data_in_mprj[115] la_data_in_mprj[116]
+ la_data_in_mprj[117] la_data_in_mprj[118] la_data_in_mprj[119] la_data_in_mprj[11]
+ la_data_in_mprj[120] la_data_in_mprj[121] la_data_in_mprj[122] la_data_in_mprj[123]
+ la_data_in_mprj[124] la_data_in_mprj[125] la_data_in_mprj[126] la_data_in_mprj[127]
+ la_data_in_mprj[12] la_data_in_mprj[13] la_data_in_mprj[14] la_data_in_mprj[15]
+ la_data_in_mprj[16] la_data_in_mprj[17] la_data_in_mprj[18] la_data_in_mprj[19]
+ la_data_in_mprj[1] la_data_in_mprj[20] la_data_in_mprj[21] la_data_in_mprj[22] la_data_in_mprj[23]
+ la_data_in_mprj[24] la_data_in_mprj[25] la_data_in_mprj[26] la_data_in_mprj[27]
+ la_data_in_mprj[28] la_data_in_mprj[29] la_data_in_mprj[2] la_data_in_mprj[30] la_data_in_mprj[31]
+ la_data_in_mprj[32] la_data_in_mprj[33] la_data_in_mprj[34] la_data_in_mprj[35]
+ la_data_in_mprj[36] la_data_in_mprj[37] la_data_in_mprj[38] la_data_in_mprj[39]
+ la_data_in_mprj[3] la_data_in_mprj[40] la_data_in_mprj[41] la_data_in_mprj[42] la_data_in_mprj[43]
+ la_data_in_mprj[44] la_data_in_mprj[45] la_data_in_mprj[46] la_data_in_mprj[47]
+ la_data_in_mprj[48] la_data_in_mprj[49] la_data_in_mprj[4] la_data_in_mprj[50] la_data_in_mprj[51]
+ la_data_in_mprj[52] la_data_in_mprj[53] la_data_in_mprj[54] la_data_in_mprj[55]
+ la_data_in_mprj[56] la_data_in_mprj[57] la_data_in_mprj[58] la_data_in_mprj[59]
+ la_data_in_mprj[5] la_data_in_mprj[60] la_data_in_mprj[61] la_data_in_mprj[62] la_data_in_mprj[63]
+ la_data_in_mprj[64] la_data_in_mprj[65] la_data_in_mprj[66] la_data_in_mprj[67]
+ la_data_in_mprj[68] la_data_in_mprj[69] la_data_in_mprj[6] la_data_in_mprj[70] la_data_in_mprj[71]
+ la_data_in_mprj[72] la_data_in_mprj[73] la_data_in_mprj[74] la_data_in_mprj[75]
+ la_data_in_mprj[76] la_data_in_mprj[77] la_data_in_mprj[78] la_data_in_mprj[79]
+ la_data_in_mprj[7] la_data_in_mprj[80] la_data_in_mprj[81] la_data_in_mprj[82] la_data_in_mprj[83]
+ la_data_in_mprj[84] la_data_in_mprj[85] la_data_in_mprj[86] la_data_in_mprj[87]
+ la_data_in_mprj[88] la_data_in_mprj[89] la_data_in_mprj[8] la_data_in_mprj[90] la_data_in_mprj[91]
+ la_data_in_mprj[92] la_data_in_mprj[93] la_data_in_mprj[94] la_data_in_mprj[95]
+ la_data_in_mprj[96] la_data_in_mprj[97] la_data_in_mprj[98] la_data_in_mprj[99]
+ la_data_in_mprj[9] la_data_out_core[0] la_data_out_core[100] la_data_out_core[101]
+ la_data_out_core[102] la_data_out_core[103] la_data_out_core[104] la_data_out_core[105]
+ la_data_out_core[106] la_data_out_core[107] la_data_out_core[108] la_data_out_core[109]
+ la_data_out_core[10] la_data_out_core[110] la_data_out_core[111] la_data_out_core[112]
+ la_data_out_core[113] la_data_out_core[114] la_data_out_core[115] la_data_out_core[116]
+ la_data_out_core[117] la_data_out_core[118] la_data_out_core[119] la_data_out_core[11]
+ la_data_out_core[120] la_data_out_core[121] la_data_out_core[122] la_data_out_core[123]
+ la_data_out_core[124] la_data_out_core[125] la_data_out_core[126] la_data_out_core[127]
+ la_data_out_core[12] la_data_out_core[13] la_data_out_core[14] la_data_out_core[15]
+ la_data_out_core[16] la_data_out_core[17] la_data_out_core[18] la_data_out_core[19]
+ la_data_out_core[1] la_data_out_core[20] la_data_out_core[21] la_data_out_core[22]
+ la_data_out_core[23] la_data_out_core[24] la_data_out_core[25] la_data_out_core[26]
+ la_data_out_core[27] la_data_out_core[28] la_data_out_core[29] la_data_out_core[2]
+ la_data_out_core[30] la_data_out_core[31] la_data_out_core[32] la_data_out_core[33]
+ la_data_out_core[34] la_data_out_core[35] la_data_out_core[36] la_data_out_core[37]
+ la_data_out_core[38] la_data_out_core[39] la_data_out_core[3] la_data_out_core[40]
+ la_data_out_core[41] la_data_out_core[42] la_data_out_core[43] la_data_out_core[44]
+ la_data_out_core[45] la_data_out_core[46] la_data_out_core[47] la_data_out_core[48]
+ la_data_out_core[49] la_data_out_core[4] la_data_out_core[50] la_data_out_core[51]
+ la_data_out_core[52] la_data_out_core[53] la_data_out_core[54] la_data_out_core[55]
+ la_data_out_core[56] la_data_out_core[57] la_data_out_core[58] la_data_out_core[59]
+ la_data_out_core[5] la_data_out_core[60] la_data_out_core[61] la_data_out_core[62]
+ la_data_out_core[63] la_data_out_core[64] la_data_out_core[65] la_data_out_core[66]
+ la_data_out_core[67] la_data_out_core[68] la_data_out_core[69] la_data_out_core[6]
+ la_data_out_core[70] la_data_out_core[71] la_data_out_core[72] la_data_out_core[73]
+ la_data_out_core[74] la_data_out_core[75] la_data_out_core[76] la_data_out_core[77]
+ la_data_out_core[78] la_data_out_core[79] la_data_out_core[7] la_data_out_core[80]
+ la_data_out_core[81] la_data_out_core[82] la_data_out_core[83] la_data_out_core[84]
+ la_data_out_core[85] la_data_out_core[86] la_data_out_core[87] la_data_out_core[88]
+ la_data_out_core[89] la_data_out_core[8] la_data_out_core[90] la_data_out_core[91]
+ la_data_out_core[92] la_data_out_core[93] la_data_out_core[94] la_data_out_core[95]
+ la_data_out_core[96] la_data_out_core[97] la_data_out_core[98] la_data_out_core[99]
+ la_data_out_core[9] la_data_out_mprj[0] la_data_out_mprj[100] la_data_out_mprj[101]
+ la_data_out_mprj[102] la_data_out_mprj[103] la_data_out_mprj[104] la_data_out_mprj[105]
+ la_data_out_mprj[106] la_data_out_mprj[107] la_data_out_mprj[108] la_data_out_mprj[109]
+ la_data_out_mprj[10] la_data_out_mprj[110] la_data_out_mprj[111] la_data_out_mprj[112]
+ la_data_out_mprj[113] la_data_out_mprj[114] la_data_out_mprj[115] la_data_out_mprj[116]
+ la_data_out_mprj[117] la_data_out_mprj[118] la_data_out_mprj[119] la_data_out_mprj[11]
+ la_data_out_mprj[120] la_data_out_mprj[121] la_data_out_mprj[122] la_data_out_mprj[123]
+ la_data_out_mprj[124] la_data_out_mprj[125] la_data_out_mprj[126] la_data_out_mprj[127]
+ la_data_out_mprj[12] la_data_out_mprj[13] la_data_out_mprj[14] la_data_out_mprj[15]
+ la_data_out_mprj[16] la_data_out_mprj[17] la_data_out_mprj[18] la_data_out_mprj[19]
+ la_data_out_mprj[1] la_data_out_mprj[20] la_data_out_mprj[21] la_data_out_mprj[22]
+ la_data_out_mprj[23] la_data_out_mprj[24] la_data_out_mprj[25] la_data_out_mprj[26]
+ la_data_out_mprj[27] la_data_out_mprj[28] la_data_out_mprj[29] la_data_out_mprj[2]
+ la_data_out_mprj[30] la_data_out_mprj[31] la_data_out_mprj[32] la_data_out_mprj[33]
+ la_data_out_mprj[34] la_data_out_mprj[35] la_data_out_mprj[36] la_data_out_mprj[37]
+ la_data_out_mprj[38] la_data_out_mprj[39] la_data_out_mprj[3] la_data_out_mprj[40]
+ la_data_out_mprj[41] la_data_out_mprj[42] la_data_out_mprj[43] la_data_out_mprj[44]
+ la_data_out_mprj[45] la_data_out_mprj[46] la_data_out_mprj[47] la_data_out_mprj[48]
+ la_data_out_mprj[49] la_data_out_mprj[4] la_data_out_mprj[50] la_data_out_mprj[51]
+ la_data_out_mprj[52] la_data_out_mprj[53] la_data_out_mprj[54] la_data_out_mprj[55]
+ la_data_out_mprj[56] la_data_out_mprj[57] la_data_out_mprj[58] la_data_out_mprj[59]
+ la_data_out_mprj[5] la_data_out_mprj[60] la_data_out_mprj[61] la_data_out_mprj[62]
+ la_data_out_mprj[63] la_data_out_mprj[64] la_data_out_mprj[65] la_data_out_mprj[66]
+ la_data_out_mprj[67] la_data_out_mprj[68] la_data_out_mprj[69] la_data_out_mprj[6]
+ la_data_out_mprj[70] la_data_out_mprj[71] la_data_out_mprj[72] la_data_out_mprj[73]
+ la_data_out_mprj[74] la_data_out_mprj[75] la_data_out_mprj[76] la_data_out_mprj[77]
+ la_data_out_mprj[78] la_data_out_mprj[79] la_data_out_mprj[7] la_data_out_mprj[80]
+ la_data_out_mprj[81] la_data_out_mprj[82] la_data_out_mprj[83] la_data_out_mprj[84]
+ la_data_out_mprj[85] la_data_out_mprj[86] la_data_out_mprj[87] la_data_out_mprj[88]
+ la_data_out_mprj[89] la_data_out_mprj[8] la_data_out_mprj[90] la_data_out_mprj[91]
+ la_data_out_mprj[92] la_data_out_mprj[93] la_data_out_mprj[94] la_data_out_mprj[95]
+ la_data_out_mprj[96] la_data_out_mprj[97] la_data_out_mprj[98] la_data_out_mprj[99]
+ la_data_out_mprj[9] la_iena_mprj[0] la_iena_mprj[100] la_iena_mprj[101] la_iena_mprj[102]
+ la_iena_mprj[103] la_iena_mprj[104] la_iena_mprj[105] la_iena_mprj[106] la_iena_mprj[107]
+ la_iena_mprj[108] la_iena_mprj[109] la_iena_mprj[10] la_iena_mprj[110] la_iena_mprj[111]
+ la_iena_mprj[112] la_iena_mprj[113] la_iena_mprj[114] la_iena_mprj[115] la_iena_mprj[116]
+ la_iena_mprj[117] la_iena_mprj[118] la_iena_mprj[119] la_iena_mprj[11] la_iena_mprj[120]
+ la_iena_mprj[121] la_iena_mprj[122] la_iena_mprj[123] la_iena_mprj[124] la_iena_mprj[125]
+ la_iena_mprj[126] la_iena_mprj[127] la_iena_mprj[12] la_iena_mprj[13] la_iena_mprj[14]
+ la_iena_mprj[15] la_iena_mprj[16] la_iena_mprj[17] la_iena_mprj[18] la_iena_mprj[19]
+ la_iena_mprj[1] la_iena_mprj[20] la_iena_mprj[21] la_iena_mprj[22] la_iena_mprj[23]
+ la_iena_mprj[24] la_iena_mprj[25] la_iena_mprj[26] la_iena_mprj[27] la_iena_mprj[28]
+ la_iena_mprj[29] la_iena_mprj[2] la_iena_mprj[30] la_iena_mprj[31] la_iena_mprj[32]
+ la_iena_mprj[33] la_iena_mprj[34] la_iena_mprj[35] la_iena_mprj[36] la_iena_mprj[37]
+ la_iena_mprj[38] la_iena_mprj[39] la_iena_mprj[3] la_iena_mprj[40] la_iena_mprj[41]
+ la_iena_mprj[42] la_iena_mprj[43] la_iena_mprj[44] la_iena_mprj[45] la_iena_mprj[46]
+ la_iena_mprj[47] la_iena_mprj[48] la_iena_mprj[49] la_iena_mprj[4] la_iena_mprj[50]
+ la_iena_mprj[51] la_iena_mprj[52] la_iena_mprj[53] la_iena_mprj[54] la_iena_mprj[55]
+ la_iena_mprj[56] la_iena_mprj[57] la_iena_mprj[58] la_iena_mprj[59] la_iena_mprj[5]
+ la_iena_mprj[60] la_iena_mprj[61] la_iena_mprj[62] la_iena_mprj[63] la_iena_mprj[64]
+ la_iena_mprj[65] la_iena_mprj[66] la_iena_mprj[67] la_iena_mprj[68] la_iena_mprj[69]
+ la_iena_mprj[6] la_iena_mprj[70] la_iena_mprj[71] la_iena_mprj[72] la_iena_mprj[73]
+ la_iena_mprj[74] la_iena_mprj[75] la_iena_mprj[76] la_iena_mprj[77] la_iena_mprj[78]
+ la_iena_mprj[79] la_iena_mprj[7] la_iena_mprj[80] la_iena_mprj[81] la_iena_mprj[82]
+ la_iena_mprj[83] la_iena_mprj[84] la_iena_mprj[85] la_iena_mprj[86] la_iena_mprj[87]
+ la_iena_mprj[88] la_iena_mprj[89] la_iena_mprj[8] la_iena_mprj[90] la_iena_mprj[91]
+ la_iena_mprj[92] la_iena_mprj[93] la_iena_mprj[94] la_iena_mprj[95] la_iena_mprj[96]
+ la_iena_mprj[97] la_iena_mprj[98] la_iena_mprj[99] la_iena_mprj[9] la_oenb_core[0]
+ la_oenb_core[100] la_oenb_core[101] la_oenb_core[102] la_oenb_core[103] la_oenb_core[104]
+ la_oenb_core[105] la_oenb_core[106] la_oenb_core[107] la_oenb_core[108] la_oenb_core[109]
+ la_oenb_core[10] la_oenb_core[110] la_oenb_core[111] la_oenb_core[112] la_oenb_core[113]
+ la_oenb_core[114] la_oenb_core[115] la_oenb_core[116] la_oenb_core[117] la_oenb_core[118]
+ la_oenb_core[119] la_oenb_core[11] la_oenb_core[120] la_oenb_core[121] la_oenb_core[122]
+ la_oenb_core[123] la_oenb_core[124] la_oenb_core[125] la_oenb_core[126] la_oenb_core[127]
+ la_oenb_core[12] la_oenb_core[13] la_oenb_core[14] la_oenb_core[15] la_oenb_core[16]
+ la_oenb_core[17] la_oenb_core[18] la_oenb_core[19] la_oenb_core[1] la_oenb_core[20]
+ la_oenb_core[21] la_oenb_core[22] la_oenb_core[23] la_oenb_core[24] la_oenb_core[25]
+ la_oenb_core[26] la_oenb_core[27] la_oenb_core[28] la_oenb_core[29] la_oenb_core[2]
+ la_oenb_core[30] la_oenb_core[31] la_oenb_core[32] la_oenb_core[33] la_oenb_core[34]
+ la_oenb_core[35] la_oenb_core[36] la_oenb_core[37] la_oenb_core[38] la_oenb_core[39]
+ la_oenb_core[3] la_oenb_core[40] la_oenb_core[41] la_oenb_core[42] la_oenb_core[43]
+ la_oenb_core[44] la_oenb_core[45] la_oenb_core[46] la_oenb_core[47] la_oenb_core[48]
+ la_oenb_core[49] la_oenb_core[4] la_oenb_core[50] la_oenb_core[51] la_oenb_core[52]
+ la_oenb_core[53] la_oenb_core[54] la_oenb_core[55] la_oenb_core[56] la_oenb_core[57]
+ la_oenb_core[58] la_oenb_core[59] la_oenb_core[5] la_oenb_core[60] la_oenb_core[61]
+ la_oenb_core[62] la_oenb_core[63] la_oenb_core[64] la_oenb_core[65] la_oenb_core[66]
+ la_oenb_core[67] la_oenb_core[68] la_oenb_core[69] la_oenb_core[6] la_oenb_core[70]
+ la_oenb_core[71] la_oenb_core[72] la_oenb_core[73] la_oenb_core[74] la_oenb_core[75]
+ la_oenb_core[76] la_oenb_core[77] la_oenb_core[78] la_oenb_core[79] la_oenb_core[7]
+ la_oenb_core[80] la_oenb_core[81] la_oenb_core[82] la_oenb_core[83] la_oenb_core[84]
+ la_oenb_core[85] la_oenb_core[86] la_oenb_core[87] la_oenb_core[88] la_oenb_core[89]
+ la_oenb_core[8] la_oenb_core[90] la_oenb_core[91] la_oenb_core[92] la_oenb_core[93]
+ la_oenb_core[94] la_oenb_core[95] la_oenb_core[96] la_oenb_core[97] la_oenb_core[98]
+ la_oenb_core[99] la_oenb_core[9] la_oenb_mprj[0] la_oenb_mprj[100] la_oenb_mprj[101]
+ la_oenb_mprj[102] la_oenb_mprj[103] la_oenb_mprj[104] la_oenb_mprj[105] la_oenb_mprj[106]
+ la_oenb_mprj[107] la_oenb_mprj[108] la_oenb_mprj[109] la_oenb_mprj[10] la_oenb_mprj[110]
+ la_oenb_mprj[111] la_oenb_mprj[112] la_oenb_mprj[113] la_oenb_mprj[114] la_oenb_mprj[115]
+ la_oenb_mprj[116] la_oenb_mprj[117] la_oenb_mprj[118] la_oenb_mprj[119] la_oenb_mprj[11]
+ la_oenb_mprj[120] la_oenb_mprj[121] la_oenb_mprj[122] la_oenb_mprj[123] la_oenb_mprj[124]
+ la_oenb_mprj[125] la_oenb_mprj[126] la_oenb_mprj[127] la_oenb_mprj[12] la_oenb_mprj[13]
+ la_oenb_mprj[14] la_oenb_mprj[15] la_oenb_mprj[16] la_oenb_mprj[17] la_oenb_mprj[18]
+ la_oenb_mprj[19] la_oenb_mprj[1] la_oenb_mprj[20] la_oenb_mprj[21] la_oenb_mprj[22]
+ la_oenb_mprj[23] la_oenb_mprj[24] la_oenb_mprj[25] la_oenb_mprj[26] la_oenb_mprj[27]
+ la_oenb_mprj[28] la_oenb_mprj[29] la_oenb_mprj[2] la_oenb_mprj[30] la_oenb_mprj[31]
+ la_oenb_mprj[32] la_oenb_mprj[33] la_oenb_mprj[34] la_oenb_mprj[35] la_oenb_mprj[36]
+ la_oenb_mprj[37] la_oenb_mprj[38] la_oenb_mprj[39] la_oenb_mprj[3] la_oenb_mprj[40]
+ la_oenb_mprj[41] la_oenb_mprj[42] la_oenb_mprj[43] la_oenb_mprj[44] la_oenb_mprj[45]
+ la_oenb_mprj[46] la_oenb_mprj[47] la_oenb_mprj[48] la_oenb_mprj[49] la_oenb_mprj[4]
+ la_oenb_mprj[50] la_oenb_mprj[51] la_oenb_mprj[52] la_oenb_mprj[53] la_oenb_mprj[54]
+ la_oenb_mprj[55] la_oenb_mprj[56] la_oenb_mprj[57] la_oenb_mprj[58] la_oenb_mprj[59]
+ la_oenb_mprj[5] la_oenb_mprj[60] la_oenb_mprj[61] la_oenb_mprj[62] la_oenb_mprj[63]
+ la_oenb_mprj[64] la_oenb_mprj[65] la_oenb_mprj[66] la_oenb_mprj[67] la_oenb_mprj[68]
+ la_oenb_mprj[69] la_oenb_mprj[6] la_oenb_mprj[70] la_oenb_mprj[71] la_oenb_mprj[72]
+ la_oenb_mprj[73] la_oenb_mprj[74] la_oenb_mprj[75] la_oenb_mprj[76] la_oenb_mprj[77]
+ la_oenb_mprj[78] la_oenb_mprj[79] la_oenb_mprj[7] la_oenb_mprj[80] la_oenb_mprj[81]
+ la_oenb_mprj[82] la_oenb_mprj[83] la_oenb_mprj[84] la_oenb_mprj[85] la_oenb_mprj[86]
+ la_oenb_mprj[87] la_oenb_mprj[88] la_oenb_mprj[89] la_oenb_mprj[8] la_oenb_mprj[90]
+ la_oenb_mprj[91] la_oenb_mprj[92] la_oenb_mprj[93] la_oenb_mprj[94] la_oenb_mprj[95]
+ la_oenb_mprj[96] la_oenb_mprj[97] la_oenb_mprj[98] la_oenb_mprj[99] la_oenb_mprj[9]
+ mprj_ack_i_core mprj_ack_i_user mprj_adr_o_core[0] mprj_adr_o_core[10] mprj_adr_o_core[11]
+ mprj_adr_o_core[12] mprj_adr_o_core[13] mprj_adr_o_core[14] mprj_adr_o_core[15]
+ mprj_adr_o_core[16] mprj_adr_o_core[17] mprj_adr_o_core[18] mprj_adr_o_core[19]
+ mprj_adr_o_core[1] mprj_adr_o_core[20] mprj_adr_o_core[21] mprj_adr_o_core[22] mprj_adr_o_core[23]
+ mprj_adr_o_core[24] mprj_adr_o_core[25] mprj_adr_o_core[26] mprj_adr_o_core[27]
+ mprj_adr_o_core[28] mprj_adr_o_core[29] mprj_adr_o_core[2] mprj_adr_o_core[30] mprj_adr_o_core[31]
+ mprj_adr_o_core[3] mprj_adr_o_core[4] mprj_adr_o_core[5] mprj_adr_o_core[6] mprj_adr_o_core[7]
+ mprj_adr_o_core[8] mprj_adr_o_core[9] mprj_adr_o_user[0] mprj_adr_o_user[10] mprj_adr_o_user[11]
+ mprj_adr_o_user[12] mprj_adr_o_user[13] mprj_adr_o_user[14] mprj_adr_o_user[15]
+ mprj_adr_o_user[16] mprj_adr_o_user[17] mprj_adr_o_user[18] mprj_adr_o_user[19]
+ mprj_adr_o_user[1] mprj_adr_o_user[20] mprj_adr_o_user[21] mprj_adr_o_user[22] mprj_adr_o_user[23]
+ mprj_adr_o_user[24] mprj_adr_o_user[25] mprj_adr_o_user[26] mprj_adr_o_user[27]
+ mprj_adr_o_user[28] mprj_adr_o_user[29] mprj_adr_o_user[2] mprj_adr_o_user[30] mprj_adr_o_user[31]
+ mprj_adr_o_user[3] mprj_adr_o_user[4] mprj_adr_o_user[5] mprj_adr_o_user[6] mprj_adr_o_user[7]
+ mprj_adr_o_user[8] mprj_adr_o_user[9] mprj_cyc_o_core mprj_cyc_o_user mprj_dat_i_core[0]
+ mprj_dat_i_core[10] mprj_dat_i_core[11] mprj_dat_i_core[12] mprj_dat_i_core[13]
+ mprj_dat_i_core[14] mprj_dat_i_core[15] mprj_dat_i_core[16] mprj_dat_i_core[17]
+ mprj_dat_i_core[18] mprj_dat_i_core[19] mprj_dat_i_core[1] mprj_dat_i_core[20] mprj_dat_i_core[21]
+ mprj_dat_i_core[22] mprj_dat_i_core[23] mprj_dat_i_core[24] mprj_dat_i_core[25]
+ mprj_dat_i_core[26] mprj_dat_i_core[27] mprj_dat_i_core[28] mprj_dat_i_core[29]
+ mprj_dat_i_core[2] mprj_dat_i_core[30] mprj_dat_i_core[31] mprj_dat_i_core[3] mprj_dat_i_core[4]
+ mprj_dat_i_core[5] mprj_dat_i_core[6] mprj_dat_i_core[7] mprj_dat_i_core[8] mprj_dat_i_core[9]
+ mprj_dat_i_user[0] mprj_dat_i_user[10] mprj_dat_i_user[11] mprj_dat_i_user[12] mprj_dat_i_user[13]
+ mprj_dat_i_user[14] mprj_dat_i_user[15] mprj_dat_i_user[16] mprj_dat_i_user[17]
+ mprj_dat_i_user[18] mprj_dat_i_user[19] mprj_dat_i_user[1] mprj_dat_i_user[20] mprj_dat_i_user[21]
+ mprj_dat_i_user[22] mprj_dat_i_user[23] mprj_dat_i_user[24] mprj_dat_i_user[25]
+ mprj_dat_i_user[26] mprj_dat_i_user[27] mprj_dat_i_user[28] mprj_dat_i_user[29]
+ mprj_dat_i_user[2] mprj_dat_i_user[30] mprj_dat_i_user[31] mprj_dat_i_user[3] mprj_dat_i_user[4]
+ mprj_dat_i_user[5] mprj_dat_i_user[6] mprj_dat_i_user[7] mprj_dat_i_user[8] mprj_dat_i_user[9]
+ mprj_dat_o_core[0] mprj_dat_o_core[10] mprj_dat_o_core[11] mprj_dat_o_core[12] mprj_dat_o_core[13]
+ mprj_dat_o_core[14] mprj_dat_o_core[15] mprj_dat_o_core[16] mprj_dat_o_core[17]
+ mprj_dat_o_core[18] mprj_dat_o_core[19] mprj_dat_o_core[1] mprj_dat_o_core[20] mprj_dat_o_core[21]
+ mprj_dat_o_core[22] mprj_dat_o_core[23] mprj_dat_o_core[24] mprj_dat_o_core[25]
+ mprj_dat_o_core[26] mprj_dat_o_core[27] mprj_dat_o_core[28] mprj_dat_o_core[29]
+ mprj_dat_o_core[2] mprj_dat_o_core[30] mprj_dat_o_core[31] mprj_dat_o_core[3] mprj_dat_o_core[4]
+ mprj_dat_o_core[5] mprj_dat_o_core[6] mprj_dat_o_core[7] mprj_dat_o_core[8] mprj_dat_o_core[9]
+ mprj_dat_o_user[0] mprj_dat_o_user[10] mprj_dat_o_user[11] mprj_dat_o_user[12] mprj_dat_o_user[13]
+ mprj_dat_o_user[14] mprj_dat_o_user[15] mprj_dat_o_user[16] mprj_dat_o_user[17]
+ mprj_dat_o_user[18] mprj_dat_o_user[19] mprj_dat_o_user[1] mprj_dat_o_user[20] mprj_dat_o_user[21]
+ mprj_dat_o_user[22] mprj_dat_o_user[23] mprj_dat_o_user[24] mprj_dat_o_user[25]
+ mprj_dat_o_user[26] mprj_dat_o_user[27] mprj_dat_o_user[28] mprj_dat_o_user[29]
+ mprj_dat_o_user[2] mprj_dat_o_user[30] mprj_dat_o_user[31] mprj_dat_o_user[3] mprj_dat_o_user[4]
+ mprj_dat_o_user[5] mprj_dat_o_user[6] mprj_dat_o_user[7] mprj_dat_o_user[8] mprj_dat_o_user[9]
+ mprj_iena_wb mprj_sel_o_core[0] mprj_sel_o_core[1] mprj_sel_o_core[2] mprj_sel_o_core[3]
+ mprj_sel_o_user[0] mprj_sel_o_user[1] mprj_sel_o_user[2] mprj_sel_o_user[3] mprj_stb_o_core
+ mprj_stb_o_user mprj_we_o_core mprj_we_o_user user1_vcc_powergood user1_vdd_powergood
+ user2_vcc_powergood user2_vdd_powergood user_clock user_clock2 user_irq[0] user_irq[1]
+ user_irq[2] user_irq_core[0] user_irq_core[1] user_irq_core[2] user_irq_ena[0] user_irq_ena[1]