* NGSPICE file created from mprj_logic_high.ext - technology: sky130A

* Black-box entry subcircuit for sky130_fd_sc_hd__conb_1 abstract view
.subckt sky130_fd_sc_hd__conb_1 VGND VNB VPB VPWR HI LO
.ends

* Black-box entry subcircuit for sky130_fd_sc_hd__decap_6 abstract view
.subckt sky130_fd_sc_hd__decap_6 VGND VNB VPB VPWR
.ends

* Black-box entry subcircuit for sky130_fd_sc_hd__decap_12 abstract view
.subckt sky130_fd_sc_hd__decap_12 VGND VNB VPB VPWR
.ends

* Black-box entry subcircuit for sky130_fd_sc_hd__fill_1 abstract view
.subckt sky130_fd_sc_hd__fill_1 VGND VNB VPB VPWR
.ends

* Black-box entry subcircuit for sky130_fd_sc_hd__decap_3 abstract view
.subckt sky130_fd_sc_hd__decap_3 VGND VNB VPB VPWR
.ends

* Black-box entry subcircuit for sky130_fd_sc_hd__fill_2 abstract view
.subckt sky130_fd_sc_hd__fill_2 VGND VNB VPB VPWR
.ends

* Black-box entry subcircuit for sky130_fd_sc_hd__decap_8 abstract view
.subckt sky130_fd_sc_hd__decap_8 VGND VNB VPB VPWR
.ends

* Black-box entry subcircuit for sky130_fd_sc_hd__decap_4 abstract view
.subckt sky130_fd_sc_hd__decap_4 VGND VNB VPB VPWR
.ends

* Black-box entry subcircuit for sky130_fd_sc_hd__tapvpwrvgnd_1 abstract view
.subckt sky130_fd_sc_hd__tapvpwrvgnd_1 VGND VPWR
.ends

.subckt mprj_logic_high HI[0] HI[100] HI[101] HI[102] HI[103] HI[104] HI[105] HI[106]
+ HI[107] HI[108] HI[109] HI[10] HI[110] HI[111] HI[112] HI[113] HI[114] HI[115] HI[116]
+ HI[117] HI[118] HI[119] HI[11] HI[120] HI[121] HI[122] HI[123] HI[124] HI[125] HI[126]
+ HI[127] HI[128] HI[129] HI[12] HI[130] HI[131] HI[132] HI[133] HI[134] HI[135] HI[136]
+ HI[137] HI[138] HI[139] HI[13] HI[140] HI[141] HI[142] HI[143] HI[144] HI[145] HI[146]
+ HI[147] HI[148] HI[149] HI[14] HI[150] HI[151] HI[152] HI[153] HI[154] HI[155] HI[156]
+ HI[157] HI[158] HI[159] HI[15] HI[160] HI[161] HI[162] HI[163] HI[164] HI[165] HI[166]
+ HI[167] HI[168] HI[169] HI[16] HI[170] HI[171] HI[172] HI[173] HI[174] HI[175] HI[176]
+ HI[177] HI[178] HI[179] HI[17] HI[180] HI[181] HI[182] HI[183] HI[184] HI[185] HI[186]
+ HI[187] HI[188] HI[189] HI[18] HI[190] HI[191] HI[192] HI[193] HI[194] HI[195] HI[196]
+ HI[197] HI[198] HI[199] HI[19] HI[1] HI[200] HI[201] HI[202] HI[203] HI[204] HI[205]
+ HI[206] HI[207] HI[208] HI[209] HI[20] HI[210] HI[211] HI[212] HI[213] HI[214] HI[215]
+ HI[216] HI[217] HI[218] HI[219] HI[21] HI[220] HI[221] HI[222] HI[223] HI[224] HI[225]
+ HI[226] HI[227] HI[228] HI[229] HI[22] HI[230] HI[231] HI[232] HI[233] HI[234] HI[235]
+ HI[236] HI[237] HI[238] HI[239] HI[23] HI[240] HI[241] HI[242] HI[243] HI[244] HI[245]
+ HI[246] HI[247] HI[248] HI[249] HI[24] HI[250] HI[251] HI[252] HI[253] HI[254] HI[255]
+ HI[256] HI[257] HI[258] HI[259] HI[25] HI[260] HI[261] HI[262] HI[263] HI[264] HI[265]
+ HI[266] HI[267] HI[268] HI[269] HI[26] HI[270] HI[271] HI[272] HI[273] HI[274] HI[275]
+ HI[276] HI[277] HI[278] HI[279] HI[27] HI[280] HI[281] HI[282] HI[283] HI[284] HI[285]
+ HI[286] HI[287] HI[288] HI[289] HI[28] HI[290] HI[291] HI[292] HI[293] HI[294] HI[295]
+ HI[296] HI[297] HI[298] HI[299] HI[29] HI[2] HI[300] HI[301] HI[302] HI[303] HI[304]
+ HI[305] HI[306] HI[307] HI[308] HI[309] HI[30] HI[310] HI[311] HI[312] HI[313] HI[314]
+ HI[315] HI[316] HI[317] HI[318] HI[319] HI[31] HI[320] HI[321] HI[322] HI[323] HI[324]
+ HI[325] HI[326] HI[327] HI[328] HI[329] HI[32] HI[330] HI[331] HI[332] HI[333] HI[334]
+ HI[335] HI[336] HI[337] HI[338] HI[339] HI[33] HI[340] HI[341] HI[342] HI[343] HI[344]
+ HI[345] HI[346] HI[347] HI[348] HI[349] HI[34] HI[350] HI[351] HI[352] HI[353] HI[354]
+ HI[355] HI[356] HI[357] HI[358] HI[359] HI[35] HI[360] HI[361] HI[362] HI[363] HI[364]
+ HI[365] HI[366] HI[367] HI[368] HI[369] HI[36] HI[370] HI[371] HI[372] HI[373] HI[374]
+ HI[375] HI[376] HI[377] HI[378] HI[379] HI[37] HI[380] HI[381] HI[382] HI[383] HI[384]
+ HI[385] HI[386] HI[387] HI[388] HI[389] HI[38] HI[390] HI[391] HI[392] HI[393] HI[394]
+ HI[395] HI[396] HI[397] HI[398] HI[399] HI[39] HI[3] HI[400] HI[401] HI[402] HI[403]
+ HI[404] HI[405] HI[406] HI[407] HI[408] HI[409] HI[40] HI[410] HI[411] HI[412] HI[413]
+ HI[414] HI[415] HI[416] HI[417] HI[418] HI[419] HI[41] HI[420] HI[421] HI[422] HI[423]
+ HI[424] HI[425] HI[426] HI[427] HI[428] HI[429] HI[42] HI[430] HI[431] HI[432] HI[433]
+ HI[434] HI[435] HI[436] HI[437] HI[438] HI[439] HI[43] HI[440] HI[441] HI[442] HI[443]
+ HI[444] HI[445] HI[446] HI[447] HI[448] HI[449] HI[44] HI[450] HI[451] HI[452] HI[453]
+ HI[454] HI[455] HI[456] HI[457] HI[458] HI[459] HI[45] HI[460] HI[461] HI[462] HI[46]
+ HI[47] HI[48] HI[49] HI[4] HI[50] HI[51] HI[52] HI[53] HI[54] HI[55] HI[56] HI[57]
+ HI[58] HI[59] HI[5] HI[60] HI[61] HI[62] HI[63] HI[64] HI[65] HI[66] HI[67] HI[68]
+ HI[69] HI[6] HI[70] HI[71] HI[72] HI[73] HI[74] HI[75] HI[76] HI[77] HI[78] HI[79]
+ HI[7] HI[80] HI[81] HI[82] HI[83] HI[84] HI[85] HI[86] HI[87] HI[88] HI[89] HI[8]
+ HI[90] HI[91] HI[92] HI[93] HI[94] HI[95] HI[96] HI[97] HI[98] HI[99] HI[9] vccd1
+ vssd1
Xinsts\[210\] vssd1 vssd1 vccd1 vccd1 HI[210] insts\[210\]/LO sky130_fd_sc_hd__conb_1
Xinsts\[308\] vssd1 vssd1 vccd1 vccd1 HI[308] insts\[308\]/LO sky130_fd_sc_hd__conb_1
Xinsts\[425\] vssd1 vssd1 vccd1 vccd1 HI[425] insts\[425\]/LO sky130_fd_sc_hd__conb_1
Xinsts\[160\] vssd1 vssd1 vccd1 vccd1 HI[160] insts\[160\]/LO sky130_fd_sc_hd__conb_1
XFILLER_2_357 vssd1 vssd1 vccd1 vccd1 sky130_fd_sc_hd__decap_6
XFILLER_2_302 vssd1 vssd1 vccd1 vccd1 sky130_fd_sc_hd__decap_6
Xinsts\[258\] vssd1 vssd1 vccd1 vccd1 HI[258] insts\[258\]/LO sky130_fd_sc_hd__conb_1
Xinsts\[40\] vssd1 vssd1 vccd1 vccd1 HI[40] insts\[40\]/LO sky130_fd_sc_hd__conb_1
Xinsts\[375\] vssd1 vssd1 vccd1 vccd1 HI[375] insts\[375\]/LO sky130_fd_sc_hd__conb_1
Xinsts\[88\] vssd1 vssd1 vccd1 vccd1 HI[88] insts\[88\]/LO sky130_fd_sc_hd__conb_1
XFILLER_2_165 vssd1 vssd1 vccd1 vccd1 sky130_fd_sc_hd__decap_12
XFILLER_0_57 vssd1 vssd1 vccd1 vccd1 sky130_fd_sc_hd__fill_1
Xinsts\[123\] vssd1 vssd1 vccd1 vccd1 HI[123] insts\[123\]/LO sky130_fd_sc_hd__conb_1
XFILLER_0_669 vssd1 vssd1 vccd1 vccd1 sky130_fd_sc_hd__decap_3
Xinsts\[338\] vssd1 vssd1 vccd1 vccd1 HI[338] insts\[338\]/LO sky130_fd_sc_hd__conb_1
Xinsts\[240\] vssd1 vssd1 vccd1 vccd1 HI[240] insts\[240\]/LO sky130_fd_sc_hd__conb_1
Xinsts\[9\] vssd1 vssd1 vccd1 vccd1 HI[9] insts\[9\]/LO sky130_fd_sc_hd__conb_1
Xinsts\[455\] vssd1 vssd1 vccd1 vccd1 HI[455] insts\[455\]/LO sky130_fd_sc_hd__conb_1
Xinsts\[288\] vssd1 vssd1 vccd1 vccd1 HI[288] insts\[288\]/LO sky130_fd_sc_hd__conb_1
Xinsts\[190\] vssd1 vssd1 vccd1 vccd1 HI[190] insts\[190\]/LO sky130_fd_sc_hd__conb_1
Xinsts\[70\] vssd1 vssd1 vccd1 vccd1 HI[70] insts\[70\]/LO sky130_fd_sc_hd__conb_1
Xinsts\[203\] vssd1 vssd1 vccd1 vccd1 HI[203] insts\[203\]/LO sky130_fd_sc_hd__conb_1
XFILLER_1_561 vssd1 vssd1 vccd1 vccd1 sky130_fd_sc_hd__decap_12
Xinsts\[418\] vssd1 vssd1 vccd1 vccd1 HI[418] insts\[418\]/LO sky130_fd_sc_hd__conb_1
Xinsts\[153\] vssd1 vssd1 vccd1 vccd1 HI[153] insts\[153\]/LO sky130_fd_sc_hd__conb_1
Xinsts\[320\] vssd1 vssd1 vccd1 vccd1 HI[320] insts\[320\]/LO sky130_fd_sc_hd__conb_1
Xinsts\[33\] vssd1 vssd1 vccd1 vccd1 HI[33] insts\[33\]/LO sky130_fd_sc_hd__conb_1
XFILLER_1_391 vssd1 vssd1 vccd1 vccd1 sky130_fd_sc_hd__fill_1
Xinsts\[368\] vssd1 vssd1 vccd1 vccd1 HI[368] insts\[368\]/LO sky130_fd_sc_hd__conb_1
Xinsts\[270\] vssd1 vssd1 vccd1 vccd1 HI[270] insts\[270\]/LO sky130_fd_sc_hd__conb_1
XFILLER_2_177 vssd1 vssd1 vccd1 vccd1 sky130_fd_sc_hd__decap_12
XFILLER_3_486 vssd1 vssd1 vccd1 vccd1 sky130_fd_sc_hd__decap_12
Xinsts\[116\] vssd1 vssd1 vccd1 vccd1 HI[116] insts\[116\]/LO sky130_fd_sc_hd__conb_1
Xinsts\[400\] vssd1 vssd1 vccd1 vccd1 HI[400] insts\[400\]/LO sky130_fd_sc_hd__conb_1
Xinsts\[233\] vssd1 vssd1 vccd1 vccd1 HI[233] insts\[233\]/LO sky130_fd_sc_hd__conb_1
XFILLER_1_209 vssd1 vssd1 vccd1 vccd1 sky130_fd_sc_hd__decap_12
Xinsts\[183\] vssd1 vssd1 vccd1 vccd1 HI[183] insts\[183\]/LO sky130_fd_sc_hd__conb_1
Xinsts\[350\] vssd1 vssd1 vccd1 vccd1 HI[350] insts\[350\]/LO sky130_fd_sc_hd__conb_1
Xinsts\[448\] vssd1 vssd1 vccd1 vccd1 HI[448] insts\[448\]/LO sky130_fd_sc_hd__conb_1
XFILLER_1_721 vssd1 vssd1 vccd1 vccd1 sky130_fd_sc_hd__decap_6
Xinsts\[63\] vssd1 vssd1 vccd1 vccd1 HI[63] insts\[63\]/LO sky130_fd_sc_hd__conb_1
Xinsts\[398\] vssd1 vssd1 vccd1 vccd1 HI[398] insts\[398\]/LO sky130_fd_sc_hd__conb_1
XFILLER_1_573 vssd1 vssd1 vccd1 vccd1 sky130_fd_sc_hd__decap_12
Xinsts\[146\] vssd1 vssd1 vccd1 vccd1 HI[146] insts\[146\]/LO sky130_fd_sc_hd__conb_1
Xinsts\[313\] vssd1 vssd1 vccd1 vccd1 HI[313] insts\[313\]/LO sky130_fd_sc_hd__conb_1
Xinsts\[26\] vssd1 vssd1 vccd1 vccd1 HI[26] insts\[26\]/LO sky130_fd_sc_hd__conb_1
XFILLER_3_3 vssd1 vssd1 vccd1 vccd1 sky130_fd_sc_hd__decap_6
Xinsts\[430\] vssd1 vssd1 vccd1 vccd1 HI[430] insts\[430\]/LO sky130_fd_sc_hd__conb_1
XFILLER_2_189 vssd1 vssd1 vccd1 vccd1 sky130_fd_sc_hd__decap_6
Xinsts\[263\] vssd1 vssd1 vccd1 vccd1 HI[263] insts\[263\]/LO sky130_fd_sc_hd__conb_1
Xinsts\[380\] vssd1 vssd1 vccd1 vccd1 HI[380] insts\[380\]/LO sky130_fd_sc_hd__conb_1
Xinsts\[109\] vssd1 vssd1 vccd1 vccd1 HI[109] insts\[109\]/LO sky130_fd_sc_hd__conb_1
Xinsts\[93\] vssd1 vssd1 vccd1 vccd1 HI[93] insts\[93\]/LO sky130_fd_sc_hd__conb_1
XFILLER_3_498 vssd1 vssd1 vccd1 vccd1 sky130_fd_sc_hd__decap_6
XFILLER_1_80 vssd1 vssd1 vccd1 vccd1 sky130_fd_sc_hd__decap_12
Xinsts\[226\] vssd1 vssd1 vccd1 vccd1 HI[226] insts\[226\]/LO sky130_fd_sc_hd__conb_1
XFILLER_0_446 vssd1 vssd1 vccd1 vccd1 sky130_fd_sc_hd__fill_2
Xinsts\[343\] vssd1 vssd1 vccd1 vccd1 HI[343] insts\[343\]/LO sky130_fd_sc_hd__conb_1
Xinsts\[176\] vssd1 vssd1 vccd1 vccd1 HI[176] insts\[176\]/LO sky130_fd_sc_hd__conb_1
Xinsts\[56\] vssd1 vssd1 vccd1 vccd1 HI[56] insts\[56\]/LO sky130_fd_sc_hd__conb_1
Xinsts\[460\] vssd1 vssd1 vccd1 vccd1 HI[460] insts\[460\]/LO sky130_fd_sc_hd__conb_1
Xinsts\[293\] vssd1 vssd1 vccd1 vccd1 HI[293] insts\[293\]/LO sky130_fd_sc_hd__conb_1
XFILLER_1_541 vssd1 vssd1 vccd1 vccd1 sky130_fd_sc_hd__decap_12
XFILLER_1_585 vssd1 vssd1 vccd1 vccd1 sky130_fd_sc_hd__decap_12
Xinsts\[139\] vssd1 vssd1 vccd1 vccd1 HI[139] insts\[139\]/LO sky130_fd_sc_hd__conb_1
Xinsts\[306\] vssd1 vssd1 vccd1 vccd1 HI[306] insts\[306\]/LO sky130_fd_sc_hd__conb_1
Xinsts\[19\] vssd1 vssd1 vccd1 vccd1 HI[19] insts\[19\]/LO sky130_fd_sc_hd__conb_1
XFILLER_1_393 vssd1 vssd1 vccd1 vccd1 sky130_fd_sc_hd__decap_12
Xinsts\[423\] vssd1 vssd1 vccd1 vccd1 HI[423] insts\[423\]/LO sky130_fd_sc_hd__conb_1
Xinsts\[256\] vssd1 vssd1 vccd1 vccd1 HI[256] insts\[256\]/LO sky130_fd_sc_hd__conb_1
Xinsts\[373\] vssd1 vssd1 vccd1 vccd1 HI[373] insts\[373\]/LO sky130_fd_sc_hd__conb_1
XFILLER_0_617 vssd1 vssd1 vccd1 vccd1 sky130_fd_sc_hd__decap_12
Xinsts\[86\] vssd1 vssd1 vccd1 vccd1 HI[86] insts\[86\]/LO sky130_fd_sc_hd__conb_1
XFILLER_1_92 vssd1 vssd1 vccd1 vccd1 sky130_fd_sc_hd__fill_1
Xinsts\[121\] vssd1 vssd1 vccd1 vccd1 HI[121] insts\[121\]/LO sky130_fd_sc_hd__conb_1
Xinsts\[219\] vssd1 vssd1 vccd1 vccd1 HI[219] insts\[219\]/LO sky130_fd_sc_hd__conb_1
XFILLER_0_458 vssd1 vssd1 vccd1 vccd1 sky130_fd_sc_hd__fill_1
Xinsts\[336\] vssd1 vssd1 vccd1 vccd1 HI[336] insts\[336\]/LO sky130_fd_sc_hd__conb_1
Xinsts\[169\] vssd1 vssd1 vccd1 vccd1 HI[169] insts\[169\]/LO sky130_fd_sc_hd__conb_1
Xinsts\[49\] vssd1 vssd1 vccd1 vccd1 HI[49] insts\[49\]/LO sky130_fd_sc_hd__conb_1
Xinsts\[286\] vssd1 vssd1 vccd1 vccd1 HI[286] insts\[286\]/LO sky130_fd_sc_hd__conb_1
Xinsts\[7\] vssd1 vssd1 vccd1 vccd1 HI[7] insts\[7\]/LO sky130_fd_sc_hd__conb_1
Xinsts\[453\] vssd1 vssd1 vccd1 vccd1 HI[453] insts\[453\]/LO sky130_fd_sc_hd__conb_1
XFILLER_1_553 vssd1 vssd1 vccd1 vccd1 sky130_fd_sc_hd__fill_1
XFILLER_1_597 vssd1 vssd1 vccd1 vccd1 sky130_fd_sc_hd__decap_12
Xinsts\[201\] vssd1 vssd1 vccd1 vccd1 HI[201] insts\[201\]/LO sky130_fd_sc_hd__conb_1
Xinsts\[416\] vssd1 vssd1 vccd1 vccd1 HI[416] insts\[416\]/LO sky130_fd_sc_hd__conb_1
Xinsts\[249\] vssd1 vssd1 vccd1 vccd1 HI[249] insts\[249\]/LO sky130_fd_sc_hd__conb_1
Xinsts\[151\] vssd1 vssd1 vccd1 vccd1 HI[151] insts\[151\]/LO sky130_fd_sc_hd__conb_1
XFILLER_2_681 vssd1 vssd1 vccd1 vccd1 sky130_fd_sc_hd__decap_8
Xinsts\[31\] vssd1 vssd1 vccd1 vccd1 HI[31] insts\[31\]/LO sky130_fd_sc_hd__conb_1
XFILLER_0_629 vssd1 vssd1 vccd1 vccd1 sky130_fd_sc_hd__decap_12
Xinsts\[366\] vssd1 vssd1 vccd1 vccd1 HI[366] insts\[366\]/LO sky130_fd_sc_hd__conb_1
Xinsts\[199\] vssd1 vssd1 vccd1 vccd1 HI[199] insts\[199\]/LO sky130_fd_sc_hd__conb_1
Xinsts\[79\] vssd1 vssd1 vccd1 vccd1 HI[79] insts\[79\]/LO sky130_fd_sc_hd__conb_1
Xinsts\[114\] vssd1 vssd1 vccd1 vccd1 HI[114] insts\[114\]/LO sky130_fd_sc_hd__conb_1
Xinsts\[329\] vssd1 vssd1 vccd1 vccd1 HI[329] insts\[329\]/LO sky130_fd_sc_hd__conb_1
Xinsts\[231\] vssd1 vssd1 vccd1 vccd1 HI[231] insts\[231\]/LO sky130_fd_sc_hd__conb_1
XFILLER_0_245 vssd1 vssd1 vccd1 vccd1 sky130_fd_sc_hd__fill_1
Xinsts\[446\] vssd1 vssd1 vccd1 vccd1 HI[446] insts\[446\]/LO sky130_fd_sc_hd__conb_1
Xinsts\[181\] vssd1 vssd1 vccd1 vccd1 HI[181] insts\[181\]/LO sky130_fd_sc_hd__conb_1
Xinsts\[279\] vssd1 vssd1 vccd1 vccd1 HI[279] insts\[279\]/LO sky130_fd_sc_hd__conb_1
Xinsts\[61\] vssd1 vssd1 vccd1 vccd1 HI[61] insts\[61\]/LO sky130_fd_sc_hd__conb_1
Xinsts\[396\] vssd1 vssd1 vccd1 vccd1 HI[396] insts\[396\]/LO sky130_fd_sc_hd__conb_1
Xinsts\[144\] vssd1 vssd1 vccd1 vccd1 HI[144] insts\[144\]/LO sky130_fd_sc_hd__conb_1
Xinsts\[409\] vssd1 vssd1 vccd1 vccd1 HI[409] insts\[409\]/LO sky130_fd_sc_hd__conb_1
XFILLER_0_29 vssd1 vssd1 vccd1 vccd1 sky130_fd_sc_hd__fill_2
Xinsts\[311\] vssd1 vssd1 vccd1 vccd1 HI[311] insts\[311\]/LO sky130_fd_sc_hd__conb_1
Xinsts\[24\] vssd1 vssd1 vccd1 vccd1 HI[24] insts\[24\]/LO sky130_fd_sc_hd__conb_1
Xinsts\[359\] vssd1 vssd1 vccd1 vccd1 HI[359] insts\[359\]/LO sky130_fd_sc_hd__conb_1
XFILLER_1_3 vssd1 vssd1 vccd1 vccd1 sky130_fd_sc_hd__decap_4
Xinsts\[261\] vssd1 vssd1 vccd1 vccd1 HI[261] insts\[261\]/LO sky130_fd_sc_hd__conb_1
Xinsts\[107\] vssd1 vssd1 vccd1 vccd1 HI[107] insts\[107\]/LO sky130_fd_sc_hd__conb_1
Xinsts\[91\] vssd1 vssd1 vccd1 vccd1 HI[91] insts\[91\]/LO sky130_fd_sc_hd__conb_1
Xinsts\[224\] vssd1 vssd1 vccd1 vccd1 HI[224] insts\[224\]/LO sky130_fd_sc_hd__conb_1
XFILLER_0_279 vssd1 vssd1 vccd1 vccd1 sky130_fd_sc_hd__fill_1
XPHY_0 vssd1 vssd1 vccd1 vccd1 sky130_fd_sc_hd__decap_3
Xinsts\[439\] vssd1 vssd1 vccd1 vccd1 HI[439] insts\[439\]/LO sky130_fd_sc_hd__conb_1
XFILLER_3_29 vssd1 vssd1 vccd1 vccd1 sky130_fd_sc_hd__fill_2
Xinsts\[174\] vssd1 vssd1 vccd1 vccd1 HI[174] insts\[174\]/LO sky130_fd_sc_hd__conb_1
Xinsts\[341\] vssd1 vssd1 vccd1 vccd1 HI[341] insts\[341\]/LO sky130_fd_sc_hd__conb_1
Xinsts\[54\] vssd1 vssd1 vccd1 vccd1 HI[54] insts\[54\]/LO sky130_fd_sc_hd__conb_1
Xinsts\[389\] vssd1 vssd1 vccd1 vccd1 HI[389] insts\[389\]/LO sky130_fd_sc_hd__conb_1
Xinsts\[291\] vssd1 vssd1 vccd1 vccd1 HI[291] insts\[291\]/LO sky130_fd_sc_hd__conb_1
Xinsts\[137\] vssd1 vssd1 vccd1 vccd1 HI[137] insts\[137\]/LO sky130_fd_sc_hd__conb_1
XFILLER_2_138 vssd1 vssd1 vccd1 vccd1 sky130_fd_sc_hd__fill_2
Xinsts\[304\] vssd1 vssd1 vccd1 vccd1 HI[304] insts\[304\]/LO sky130_fd_sc_hd__conb_1
Xinsts\[17\] vssd1 vssd1 vccd1 vccd1 HI[17] insts\[17\]/LO sky130_fd_sc_hd__conb_1
Xinsts\[421\] vssd1 vssd1 vccd1 vccd1 HI[421] insts\[421\]/LO sky130_fd_sc_hd__conb_1
Xinsts\[254\] vssd1 vssd1 vccd1 vccd1 HI[254] insts\[254\]/LO sky130_fd_sc_hd__conb_1
Xinsts\[371\] vssd1 vssd1 vccd1 vccd1 HI[371] insts\[371\]/LO sky130_fd_sc_hd__conb_1
Xinsts\[84\] vssd1 vssd1 vccd1 vccd1 HI[84] insts\[84\]/LO sky130_fd_sc_hd__conb_1
Xinsts\[217\] vssd1 vssd1 vccd1 vccd1 HI[217] insts\[217\]/LO sky130_fd_sc_hd__conb_1
XPHY_1 vssd1 vssd1 vccd1 vccd1 sky130_fd_sc_hd__decap_3
Xinsts\[334\] vssd1 vssd1 vccd1 vccd1 HI[334] insts\[334\]/LO sky130_fd_sc_hd__conb_1
Xinsts\[167\] vssd1 vssd1 vccd1 vccd1 HI[167] insts\[167\]/LO sky130_fd_sc_hd__conb_1
Xinsts\[47\] vssd1 vssd1 vccd1 vccd1 HI[47] insts\[47\]/LO sky130_fd_sc_hd__conb_1
XFILLER_2_309 vssd1 vssd1 vccd1 vccd1 sky130_fd_sc_hd__decap_12
Xinsts\[5\] vssd1 vssd1 vccd1 vccd1 HI[5] insts\[5\]/LO sky130_fd_sc_hd__conb_1
Xinsts\[451\] vssd1 vssd1 vccd1 vccd1 HI[451] insts\[451\]/LO sky130_fd_sc_hd__conb_1
Xinsts\[284\] vssd1 vssd1 vccd1 vccd1 HI[284] insts\[284\]/LO sky130_fd_sc_hd__conb_1
XFILLER_1_331 vssd1 vssd1 vccd1 vccd1 sky130_fd_sc_hd__decap_4
XFILLER_2_695 vssd1 vssd1 vccd1 vccd1 sky130_fd_sc_hd__fill_2
XFILLER_1_172 vssd1 vssd1 vccd1 vccd1 sky130_fd_sc_hd__decap_12
Xinsts\[247\] vssd1 vssd1 vccd1 vccd1 HI[247] insts\[247\]/LO sky130_fd_sc_hd__conb_1
Xinsts\[414\] vssd1 vssd1 vccd1 vccd1 HI[414] insts\[414\]/LO sky130_fd_sc_hd__conb_1
XFILLER_2_470 vssd1 vssd1 vccd1 vccd1 sky130_fd_sc_hd__decap_6
XFILLER_1_96 vssd1 vssd1 vccd1 vccd1 sky130_fd_sc_hd__decap_12
XFILLER_1_63 vssd1 vssd1 vccd1 vccd1 sky130_fd_sc_hd__fill_2
Xinsts\[364\] vssd1 vssd1 vccd1 vccd1 HI[364] insts\[364\]/LO sky130_fd_sc_hd__conb_1
Xinsts\[197\] vssd1 vssd1 vccd1 vccd1 HI[197] insts\[197\]/LO sky130_fd_sc_hd__conb_1
Xinsts\[77\] vssd1 vssd1 vccd1 vccd1 HI[77] insts\[77\]/LO sky130_fd_sc_hd__conb_1
Xinsts\[112\] vssd1 vssd1 vccd1 vccd1 HI[112] insts\[112\]/LO sky130_fd_sc_hd__conb_1
XFILLER_0_259 vssd1 vssd1 vccd1 vccd1 sky130_fd_sc_hd__fill_2
XFILLER_1_727 vssd1 vssd1 vccd1 vccd1 sky130_fd_sc_hd__fill_1
XPHY_2 vssd1 vssd1 vccd1 vccd1 sky130_fd_sc_hd__decap_3
Xinsts\[327\] vssd1 vssd1 vccd1 vccd1 HI[327] insts\[327\]/LO sky130_fd_sc_hd__conb_1
XFILLER_1_502 vssd1 vssd1 vccd1 vccd1 sky130_fd_sc_hd__fill_2
XFILLER_1_557 vssd1 vssd1 vccd1 vccd1 sky130_fd_sc_hd__decap_3
Xinsts\[444\] vssd1 vssd1 vccd1 vccd1 HI[444] insts\[444\]/LO sky130_fd_sc_hd__conb_1
Xinsts\[277\] vssd1 vssd1 vccd1 vccd1 HI[277] insts\[277\]/LO sky130_fd_sc_hd__conb_1
XFILLER_1_343 vssd1 vssd1 vccd1 vccd1 sky130_fd_sc_hd__decap_12
Xinsts\[394\] vssd1 vssd1 vccd1 vccd1 HI[394] insts\[394\]/LO sky130_fd_sc_hd__conb_1
XFILLER_3_9 vssd1 vssd1 vccd1 vccd1 sky130_fd_sc_hd__fill_1
XFILLER_2_118 vssd1 vssd1 vccd1 vccd1 sky130_fd_sc_hd__decap_12
XFILLER_1_184 vssd1 vssd1 vccd1 vccd1 sky130_fd_sc_hd__decap_12
Xinsts\[407\] vssd1 vssd1 vccd1 vccd1 HI[407] insts\[407\]/LO sky130_fd_sc_hd__conb_1
Xinsts\[142\] vssd1 vssd1 vccd1 vccd1 HI[142] insts\[142\]/LO sky130_fd_sc_hd__conb_1
Xinsts\[22\] vssd1 vssd1 vccd1 vccd1 HI[22] insts\[22\]/LO sky130_fd_sc_hd__conb_1
Xinsts\[357\] vssd1 vssd1 vccd1 vccd1 HI[357] insts\[357\]/LO sky130_fd_sc_hd__conb_1
Xinsts\[105\] vssd1 vssd1 vccd1 vccd1 HI[105] insts\[105\]/LO sky130_fd_sc_hd__conb_1
XPHY_3 vssd1 vssd1 vccd1 vccd1 sky130_fd_sc_hd__decap_3
Xinsts\[222\] vssd1 vssd1 vccd1 vccd1 HI[222] insts\[222\]/LO sky130_fd_sc_hd__conb_1
Xinsts\[437\] vssd1 vssd1 vccd1 vccd1 HI[437] insts\[437\]/LO sky130_fd_sc_hd__conb_1
Xinsts\[172\] vssd1 vssd1 vccd1 vccd1 HI[172] insts\[172\]/LO sky130_fd_sc_hd__conb_1
XFILLER_1_355 vssd1 vssd1 vccd1 vccd1 sky130_fd_sc_hd__decap_12
Xinsts\[52\] vssd1 vssd1 vccd1 vccd1 HI[52] insts\[52\]/LO sky130_fd_sc_hd__conb_1
Xinsts\[387\] vssd1 vssd1 vccd1 vccd1 HI[387] insts\[387\]/LO sky130_fd_sc_hd__conb_1
XFILLER_1_196 vssd1 vssd1 vccd1 vccd1 sky130_fd_sc_hd__decap_8
Xinsts\[135\] vssd1 vssd1 vccd1 vccd1 HI[135] insts\[135\]/LO sky130_fd_sc_hd__conb_1
Xinsts\[302\] vssd1 vssd1 vccd1 vccd1 HI[302] insts\[302\]/LO sky130_fd_sc_hd__conb_1
Xinsts\[15\] vssd1 vssd1 vccd1 vccd1 HI[15] insts\[15\]/LO sky130_fd_sc_hd__conb_1
Xinsts\[252\] vssd1 vssd1 vccd1 vccd1 HI[252] insts\[252\]/LO sky130_fd_sc_hd__conb_1
XFILLER_0_228 vssd1 vssd1 vccd1 vccd1 sky130_fd_sc_hd__fill_2
XFILLER_1_729 vssd1 vssd1 vccd1 vccd1 sky130_fd_sc_hd__fill_2
Xinsts\[82\] vssd1 vssd1 vccd1 vccd1 HI[82] insts\[82\]/LO sky130_fd_sc_hd__conb_1
XPHY_4 vssd1 vssd1 vccd1 vccd1 sky130_fd_sc_hd__decap_3
Xinsts\[215\] vssd1 vssd1 vccd1 vccd1 HI[215] insts\[215\]/LO sky130_fd_sc_hd__conb_1
Xinsts\[165\] vssd1 vssd1 vccd1 vccd1 HI[165] insts\[165\]/LO sky130_fd_sc_hd__conb_1
Xinsts\[332\] vssd1 vssd1 vccd1 vccd1 HI[332] insts\[332\]/LO sky130_fd_sc_hd__conb_1
XFILLER_1_301 vssd1 vssd1 vccd1 vccd1 sky130_fd_sc_hd__decap_3
XFILLER_1_367 vssd1 vssd1 vccd1 vccd1 sky130_fd_sc_hd__decap_12
Xinsts\[45\] vssd1 vssd1 vccd1 vccd1 HI[45] insts\[45\]/LO sky130_fd_sc_hd__conb_1
XFILLER_2_109 vssd1 vssd1 vccd1 vccd1 sky130_fd_sc_hd__decap_6
Xinsts\[3\] vssd1 vssd1 vccd1 vccd1 HI[3] insts\[3\]/LO sky130_fd_sc_hd__conb_1
XFILLER_2_643 vssd1 vssd1 vccd1 vccd1 sky130_fd_sc_hd__fill_1
XFILLER_1_142 vssd1 vssd1 vccd1 vccd1 sky130_fd_sc_hd__decap_12
Xinsts\[282\] vssd1 vssd1 vccd1 vccd1 HI[282] insts\[282\]/LO sky130_fd_sc_hd__conb_1
Xinsts\[128\] vssd1 vssd1 vccd1 vccd1 HI[128] insts\[128\]/LO sky130_fd_sc_hd__conb_1
XFILLER_1_55 vssd1 vssd1 vccd1 vccd1 sky130_fd_sc_hd__fill_1
Xinsts\[412\] vssd1 vssd1 vccd1 vccd1 HI[412] insts\[412\]/LO sky130_fd_sc_hd__conb_1
Xinsts\[245\] vssd1 vssd1 vccd1 vccd1 HI[245] insts\[245\]/LO sky130_fd_sc_hd__conb_1
Xinsts\[362\] vssd1 vssd1 vccd1 vccd1 HI[362] insts\[362\]/LO sky130_fd_sc_hd__conb_1
Xinsts\[195\] vssd1 vssd1 vccd1 vccd1 HI[195] insts\[195\]/LO sky130_fd_sc_hd__conb_1
Xinsts\[75\] vssd1 vssd1 vccd1 vccd1 HI[75] insts\[75\]/LO sky130_fd_sc_hd__conb_1
XPHY_5 vssd1 vssd1 vccd1 vccd1 sky130_fd_sc_hd__decap_3
Xinsts\[110\] vssd1 vssd1 vccd1 vccd1 HI[110] insts\[110\]/LO sky130_fd_sc_hd__conb_1
Xinsts\[208\] vssd1 vssd1 vccd1 vccd1 HI[208] insts\[208\]/LO sky130_fd_sc_hd__conb_1
XFILLER_1_505 vssd1 vssd1 vccd1 vccd1 sky130_fd_sc_hd__decap_12
Xinsts\[158\] vssd1 vssd1 vccd1 vccd1 HI[158] insts\[158\]/LO sky130_fd_sc_hd__conb_1
Xinsts\[325\] vssd1 vssd1 vccd1 vccd1 HI[325] insts\[325\]/LO sky130_fd_sc_hd__conb_1
XFILLER_1_335 vssd1 vssd1 vccd1 vccd1 sky130_fd_sc_hd__fill_1
XFILLER_1_379 vssd1 vssd1 vccd1 vccd1 sky130_fd_sc_hd__decap_12
Xinsts\[38\] vssd1 vssd1 vccd1 vccd1 HI[38] insts\[38\]/LO sky130_fd_sc_hd__conb_1
Xinsts\[442\] vssd1 vssd1 vccd1 vccd1 HI[442] insts\[442\]/LO sky130_fd_sc_hd__conb_1
Xinsts\[275\] vssd1 vssd1 vccd1 vccd1 HI[275] insts\[275\]/LO sky130_fd_sc_hd__conb_1
XFILLER_1_154 vssd1 vssd1 vccd1 vccd1 sky130_fd_sc_hd__decap_12
XFILLER_1_121 vssd1 vssd1 vccd1 vccd1 sky130_fd_sc_hd__decap_12
Xinsts\[392\] vssd1 vssd1 vccd1 vccd1 HI[392] insts\[392\]/LO sky130_fd_sc_hd__conb_1
Xinsts\[405\] vssd1 vssd1 vccd1 vccd1 HI[405] insts\[405\]/LO sky130_fd_sc_hd__conb_1
Xinsts\[140\] vssd1 vssd1 vccd1 vccd1 HI[140] insts\[140\]/LO sky130_fd_sc_hd__conb_1
Xinsts\[238\] vssd1 vssd1 vccd1 vccd1 HI[238] insts\[238\]/LO sky130_fd_sc_hd__conb_1
Xinsts\[20\] vssd1 vssd1 vccd1 vccd1 HI[20] insts\[20\]/LO sky130_fd_sc_hd__conb_1
Xinsts\[355\] vssd1 vssd1 vccd1 vccd1 HI[355] insts\[355\]/LO sky130_fd_sc_hd__conb_1
Xinsts\[188\] vssd1 vssd1 vccd1 vccd1 HI[188] insts\[188\]/LO sky130_fd_sc_hd__conb_1
XFILLER_1_709 vssd1 vssd1 vccd1 vccd1 sky130_fd_sc_hd__decap_12
XPHY_6 vssd1 vssd1 vccd1 vccd1 sky130_fd_sc_hd__decap_3
Xinsts\[68\] vssd1 vssd1 vccd1 vccd1 HI[68] insts\[68\]/LO sky130_fd_sc_hd__conb_1
XFILLER_1_517 vssd1 vssd1 vccd1 vccd1 sky130_fd_sc_hd__decap_12
Xinsts\[103\] vssd1 vssd1 vccd1 vccd1 HI[103] insts\[103\]/LO sky130_fd_sc_hd__conb_1
Xinsts\[318\] vssd1 vssd1 vccd1 vccd1 HI[318] insts\[318\]/LO sky130_fd_sc_hd__conb_1
Xinsts\[220\] vssd1 vssd1 vccd1 vccd1 HI[220] insts\[220\]/LO sky130_fd_sc_hd__conb_1
Xinsts\[170\] vssd1 vssd1 vccd1 vccd1 HI[170] insts\[170\]/LO sky130_fd_sc_hd__conb_1
Xinsts\[435\] vssd1 vssd1 vccd1 vccd1 HI[435] insts\[435\]/LO sky130_fd_sc_hd__conb_1
XFILLER_2_689 vssd1 vssd1 vccd1 vccd1 sky130_fd_sc_hd__decap_3
XFILLER_2_645 vssd1 vssd1 vccd1 vccd1 sky130_fd_sc_hd__decap_12
XFILLER_2_601 vssd1 vssd1 vccd1 vccd1 sky130_fd_sc_hd__decap_12
XFILLER_1_133 vssd1 vssd1 vccd1 vccd1 sky130_fd_sc_hd__decap_6
XFILLER_1_166 vssd1 vssd1 vccd1 vccd1 sky130_fd_sc_hd__fill_2
Xinsts\[268\] vssd1 vssd1 vccd1 vccd1 HI[268] insts\[268\]/LO sky130_fd_sc_hd__conb_1
Xinsts\[50\] vssd1 vssd1 vccd1 vccd1 HI[50] insts\[50\]/LO sky130_fd_sc_hd__conb_1
Xinsts\[385\] vssd1 vssd1 vccd1 vccd1 HI[385] insts\[385\]/LO sky130_fd_sc_hd__conb_1
Xinsts\[98\] vssd1 vssd1 vccd1 vccd1 HI[98] insts\[98\]/LO sky130_fd_sc_hd__conb_1
XFILLER_2_442 vssd1 vssd1 vccd1 vccd1 sky130_fd_sc_hd__decap_12
XFILLER_1_68 vssd1 vssd1 vccd1 vccd1 sky130_fd_sc_hd__decap_12
Xinsts\[133\] vssd1 vssd1 vccd1 vccd1 HI[133] insts\[133\]/LO sky130_fd_sc_hd__conb_1
Xinsts\[300\] vssd1 vssd1 vccd1 vccd1 HI[300] insts\[300\]/LO sky130_fd_sc_hd__conb_1
Xinsts\[13\] vssd1 vssd1 vccd1 vccd1 HI[13] insts\[13\]/LO sky130_fd_sc_hd__conb_1
XPHY_7 vssd1 vssd1 vccd1 vccd1 sky130_fd_sc_hd__decap_3
Xinsts\[348\] vssd1 vssd1 vccd1 vccd1 HI[348] insts\[348\]/LO sky130_fd_sc_hd__conb_1
Xinsts\[250\] vssd1 vssd1 vccd1 vccd1 HI[250] insts\[250\]/LO sky130_fd_sc_hd__conb_1
Xinsts\[298\] vssd1 vssd1 vccd1 vccd1 HI[298] insts\[298\]/LO sky130_fd_sc_hd__conb_1
XFILLER_1_529 vssd1 vssd1 vccd1 vccd1 sky130_fd_sc_hd__decap_12
Xinsts\[80\] vssd1 vssd1 vccd1 vccd1 HI[80] insts\[80\]/LO sky130_fd_sc_hd__conb_1
Xinsts\[213\] vssd1 vssd1 vccd1 vccd1 HI[213] insts\[213\]/LO sky130_fd_sc_hd__conb_1
XFILLER_1_337 vssd1 vssd1 vccd1 vccd1 sky130_fd_sc_hd__decap_3
Xinsts\[428\] vssd1 vssd1 vccd1 vccd1 HI[428] insts\[428\]/LO sky130_fd_sc_hd__conb_1
XFILLER_2_657 vssd1 vssd1 vccd1 vccd1 sky130_fd_sc_hd__decap_12
XFILLER_2_613 vssd1 vssd1 vccd1 vccd1 sky130_fd_sc_hd__decap_12
Xinsts\[330\] vssd1 vssd1 vccd1 vccd1 HI[330] insts\[330\]/LO sky130_fd_sc_hd__conb_1
Xinsts\[163\] vssd1 vssd1 vccd1 vccd1 HI[163] insts\[163\]/LO sky130_fd_sc_hd__conb_1
Xinsts\[43\] vssd1 vssd1 vccd1 vccd1 HI[43] insts\[43\]/LO sky130_fd_sc_hd__conb_1
Xinsts\[378\] vssd1 vssd1 vccd1 vccd1 HI[378] insts\[378\]/LO sky130_fd_sc_hd__conb_1
Xinsts\[280\] vssd1 vssd1 vccd1 vccd1 HI[280] insts\[280\]/LO sky130_fd_sc_hd__conb_1
Xinsts\[1\] vssd1 vssd1 vccd1 vccd1 HI[1] insts\[1\]/LO sky130_fd_sc_hd__conb_1
XFILLER_2_454 vssd1 vssd1 vccd1 vccd1 sky130_fd_sc_hd__decap_12
XFILLER_2_421 vssd1 vssd1 vccd1 vccd1 sky130_fd_sc_hd__decap_12
XFILLER_2_410 vssd1 vssd1 vccd1 vccd1 sky130_fd_sc_hd__decap_8
XTAP_80 vssd1 vccd1 sky130_fd_sc_hd__tapvpwrvgnd_1
Xinsts\[126\] vssd1 vssd1 vccd1 vccd1 HI[126] insts\[126\]/LO sky130_fd_sc_hd__conb_1
XFILLER_2_251 vssd1 vssd1 vccd1 vccd1 sky130_fd_sc_hd__fill_1
Xinsts\[410\] vssd1 vssd1 vccd1 vccd1 HI[410] insts\[410\]/LO sky130_fd_sc_hd__conb_1
Xinsts\[243\] vssd1 vssd1 vccd1 vccd1 HI[243] insts\[243\]/LO sky130_fd_sc_hd__conb_1
Xinsts\[458\] vssd1 vssd1 vccd1 vccd1 HI[458] insts\[458\]/LO sky130_fd_sc_hd__conb_1
Xinsts\[360\] vssd1 vssd1 vccd1 vccd1 HI[360] insts\[360\]/LO sky130_fd_sc_hd__conb_1
Xinsts\[193\] vssd1 vssd1 vccd1 vccd1 HI[193] insts\[193\]/LO sky130_fd_sc_hd__conb_1
Xinsts\[73\] vssd1 vssd1 vccd1 vccd1 HI[73] insts\[73\]/LO sky130_fd_sc_hd__conb_1
Xinsts\[206\] vssd1 vssd1 vccd1 vccd1 HI[206] insts\[206\]/LO sky130_fd_sc_hd__conb_1
XFILLER_1_327 vssd1 vssd1 vccd1 vccd1 sky130_fd_sc_hd__fill_1
XFILLER_2_669 vssd1 vssd1 vccd1 vccd1 sky130_fd_sc_hd__decap_12
XFILLER_2_625 vssd1 vssd1 vccd1 vccd1 sky130_fd_sc_hd__decap_12
XFILLER_1_113 vssd1 vssd1 vccd1 vccd1 sky130_fd_sc_hd__decap_4
Xinsts\[156\] vssd1 vssd1 vccd1 vccd1 HI[156] insts\[156\]/LO sky130_fd_sc_hd__conb_1
Xinsts\[323\] vssd1 vssd1 vccd1 vccd1 HI[323] insts\[323\]/LO sky130_fd_sc_hd__conb_1
Xinsts\[36\] vssd1 vssd1 vccd1 vccd1 HI[36] insts\[36\]/LO sky130_fd_sc_hd__conb_1
Xinsts\[273\] vssd1 vssd1 vccd1 vccd1 HI[273] insts\[273\]/LO sky130_fd_sc_hd__conb_1
Xinsts\[440\] vssd1 vssd1 vccd1 vccd1 HI[440] insts\[440\]/LO sky130_fd_sc_hd__conb_1
XFILLER_2_477 vssd1 vssd1 vccd1 vccd1 sky130_fd_sc_hd__fill_1
XFILLER_2_466 vssd1 vssd1 vccd1 vccd1 sky130_fd_sc_hd__fill_1
XFILLER_2_433 vssd1 vssd1 vccd1 vccd1 sky130_fd_sc_hd__decap_6
XTAP_81 vssd1 vccd1 sky130_fd_sc_hd__tapvpwrvgnd_1
XTAP_70 vssd1 vccd1 sky130_fd_sc_hd__tapvpwrvgnd_1
Xinsts\[390\] vssd1 vssd1 vccd1 vccd1 HI[390] insts\[390\]/LO sky130_fd_sc_hd__conb_1
Xinsts\[119\] vssd1 vssd1 vccd1 vccd1 HI[119] insts\[119\]/LO sky130_fd_sc_hd__conb_1
Xinsts\[403\] vssd1 vssd1 vccd1 vccd1 HI[403] insts\[403\]/LO sky130_fd_sc_hd__conb_1
Xinsts\[236\] vssd1 vssd1 vccd1 vccd1 HI[236] insts\[236\]/LO sky130_fd_sc_hd__conb_1
XFILLER_0_701 vssd1 vssd1 vccd1 vccd1 sky130_fd_sc_hd__decap_12
Xinsts\[353\] vssd1 vssd1 vccd1 vccd1 HI[353] insts\[353\]/LO sky130_fd_sc_hd__conb_1
Xinsts\[186\] vssd1 vssd1 vccd1 vccd1 HI[186] insts\[186\]/LO sky130_fd_sc_hd__conb_1
Xinsts\[66\] vssd1 vssd1 vccd1 vccd1 HI[66] insts\[66\]/LO sky130_fd_sc_hd__conb_1
Xinsts\[101\] vssd1 vssd1 vccd1 vccd1 HI[101] insts\[101\]/LO sky130_fd_sc_hd__conb_1
Xinsts\[149\] vssd1 vssd1 vccd1 vccd1 HI[149] insts\[149\]/LO sky130_fd_sc_hd__conb_1
XFILLER_2_637 vssd1 vssd1 vccd1 vccd1 sky130_fd_sc_hd__decap_6
Xinsts\[316\] vssd1 vssd1 vccd1 vccd1 HI[316] insts\[316\]/LO sky130_fd_sc_hd__conb_1
Xinsts\[29\] vssd1 vssd1 vccd1 vccd1 HI[29] insts\[29\]/LO sky130_fd_sc_hd__conb_1
Xinsts\[433\] vssd1 vssd1 vccd1 vccd1 HI[433] insts\[433\]/LO sky130_fd_sc_hd__conb_1
Xinsts\[266\] vssd1 vssd1 vccd1 vccd1 HI[266] insts\[266\]/LO sky130_fd_sc_hd__conb_1
XTAP_82 vssd1 vccd1 sky130_fd_sc_hd__tapvpwrvgnd_1
XTAP_71 vssd1 vccd1 sky130_fd_sc_hd__tapvpwrvgnd_1
XTAP_60 vssd1 vccd1 sky130_fd_sc_hd__tapvpwrvgnd_1
Xinsts\[383\] vssd1 vssd1 vccd1 vccd1 HI[383] insts\[383\]/LO sky130_fd_sc_hd__conb_1
Xinsts\[96\] vssd1 vssd1 vccd1 vccd1 HI[96] insts\[96\]/LO sky130_fd_sc_hd__conb_1
XFILLER_2_297 vssd1 vssd1 vccd1 vccd1 sky130_fd_sc_hd__fill_2
XFILLER_2_253 vssd1 vssd1 vccd1 vccd1 sky130_fd_sc_hd__decap_12
Xinsts\[131\] vssd1 vssd1 vccd1 vccd1 HI[131] insts\[131\]/LO sky130_fd_sc_hd__conb_1
Xinsts\[229\] vssd1 vssd1 vccd1 vccd1 HI[229] insts\[229\]/LO sky130_fd_sc_hd__conb_1
XFILLER_0_713 vssd1 vssd1 vccd1 vccd1 sky130_fd_sc_hd__decap_12
Xinsts\[11\] vssd1 vssd1 vccd1 vccd1 HI[11] insts\[11\]/LO sky130_fd_sc_hd__conb_1
Xinsts\[346\] vssd1 vssd1 vccd1 vccd1 HI[346] insts\[346\]/LO sky130_fd_sc_hd__conb_1
Xinsts\[179\] vssd1 vssd1 vccd1 vccd1 HI[179] insts\[179\]/LO sky130_fd_sc_hd__conb_1
Xinsts\[59\] vssd1 vssd1 vccd1 vccd1 HI[59] insts\[59\]/LO sky130_fd_sc_hd__conb_1
XFILLER_1_307 vssd1 vssd1 vccd1 vccd1 sky130_fd_sc_hd__decap_12
Xinsts\[296\] vssd1 vssd1 vccd1 vccd1 HI[296] insts\[296\]/LO sky130_fd_sc_hd__conb_1