* Copyright 2020 The SkyWater PDK Authors
*
* Licensed under the Apache License, Version 2.0 (the "License");
* you may not use this file except in compliance with the License.
* You may obtain a copy of the License at
*
*     https://www.apache.org/licenses/LICENSE-2.0
*
* Unless required by applicable law or agreed to in writing, software
* distributed under the License is distributed on an "AS IS" BASIS,
* WITHOUT WARRANTIES OR CONDITIONS OF ANY KIND, either express or implied.
* See the License for the specific language governing permissions and
* limitations under the License.
*
* SPDX-License-Identifier: Apache-2.0

* Placeholder for "condiode", which probably represents the parasitic
* well-to-substrate diode, although it does not take any parameters.
.SUBCKT sky130_fd_io__condiode NEG POS
.ENDS

.SUBCKT sky130_fd_io__gnd2gnd_120x2_lv_isosub BDY2_B2B SRC_BDY_LVC1 VSSD
D0 SRC_BDY_LVC1 BDY2_B2B sky130_fd_pr__diode_pd2nw_05v5 area=90 pj=33
D1 BDY2_B2B SRC_BDY_LVC1 sky130_fd_pr__diode_pd2nw_05v5 area=90 pj=33
.ENDS

.SUBCKT sky130_fd_io__amuxsplitv2_delay ENABLE_VDDA_H HLD_VDDA_H_N HOLD RESET
+ VCC_IO VGND
*.PININFO ENABLE_VDDA_H:I HLD_VDDA_H_N:I HOLD:O RESET:O VCC_IO:B
*.PININFO VGND:B
XI33 enable_vdda_switch hld_vdda_h_n_switch RESET VGND VCC_IO
+ sky130_fd_io__hvsbt_nand2
XI29 hld_vdda_h_n_switch hld_vdda_h VCC_IO VCC_IO sky130_fd_pr__pfet_g5v0d10v5
+ m=2 w=3.0 l=0.6 mult=1 sa=0.265 sb=0.265 sd=0.28 topography=normal area=0.063
+ perim=1.14
XI28 hld_vdda_h HLD_VDDA_H_N VCC_IO VCC_IO sky130_fd_pr__pfet_g5v0d10v5 m=1
+ w=3.0 l=0.6 mult=1 sa=0.265 sb=0.265 sd=0.28 topography=normal area=0.063
+ perim=1.14
XI12 enable_vdda_switch enable_vdda_h_n VCC_IO VCC_IO
+ sky130_fd_pr__pfet_g5v0d10v5 m=2 w=3.0 l=0.6 mult=1 sa=0.265 sb=0.265 sd=0.28
+ topography=normal area=0.063 perim=1.14
XI13 enable_vdda_h_n ENABLE_VDDA_H VCC_IO VCC_IO sky130_fd_pr__pfet_g5v0d10v5
+ m=1 w=3.0 l=0.6 mult=1 sa=0.265 sb=0.265 sd=0.28 topography=normal area=0.063
+ perim=1.14
XI36 HOLD RESET VCC_IO VCC_IO sky130_fd_pr__pfet_g5v0d10v5 m=1 w=3.0 l=0.6
+ mult=1 sa=0.265 sb=0.265 sd=0.28 topography=normal area=0.063 perim=1.14
XI31 hld_vdda_h_n_switch hld_vdda_h VGND VGND sky130_fd_pr__nfet_g5v0d10v5 m=2
+ w=1.0 l=0.6 mult=1 sa=0.265 sb=0.265 sd=0.28 topography=normal area=0.063
+ perim=1.14
XI30 hld_vdda_h HLD_VDDA_H_N VGND VGND sky130_fd_pr__nfet_g5v0d10v5 m=1 w=1.0
+ l=0.6 mult=1 sa=0.265 sb=0.265 sd=0.28 topography=normal area=0.063 perim=1.14
XI14 enable_vdda_switch enable_vdda_h_n VGND VGND sky130_fd_pr__nfet_g5v0d10v5
+ m=2 w=1.0 l=0.6 mult=1 sa=0.265 sb=0.265 sd=0.28 topography=normal area=0.063
+ perim=1.14
XI15 enable_vdda_h_n ENABLE_VDDA_H VGND VGND sky130_fd_pr__nfet_g5v0d10v5 m=1
+ w=1.0 l=0.6 mult=1 sa=0.265 sb=0.265 sd=0.28 topography=normal area=0.063
+ perim=1.14
XI37 HOLD RESET VGND VGND sky130_fd_pr__nfet_g5v0d10v5 m=1 w=1.0 l=0.6 mult=1
+ sa=0.265 sb=0.265 sd=0.28 topography=normal area=0.063 perim=1.14
.ENDS sky130_fd_io__amuxsplitv2_delay

* Copyright 2020 The SkyWater PDK Authors
*
* Licensed under the Apache License, Version 2.0 (the "License");
* you may not use this file except in compliance with the License.
* You may obtain a copy of the License at
*
*     https://www.apache.org/licenses/LICENSE-2.0
*
* Unless required by applicable law or agreed to in writing, software
* distributed under the License is distributed on an "AS IS" BASIS,
* WITHOUT WARRANTIES OR CONDITIONS OF ANY KIND, either express or implied.
* See the License for the specific language governing permissions and
* limitations under the License.
*
* SPDX-License-Identifier: Apache-2.0

.SUBCKT sky130_fd_io__amuxsplitv2_switch AMUXBUS_L AMUXBUS_R NGATE_SL_H
+ NGATE_SR_H NMID_H PGATE_SL_H_N PGATE_SR_H_N VDDA VSSA
*.PININFO AMUXBUS_L:B AMUXBUS_R:B NGATE_SL_H:I NGATE_SR_H:I NMID_H:I
*.PININFO PGATE_SL_H_N:I PGATE_SR_H_N:I VDDA:B VSSA:B
xI20 mid VDDA sky130_fd_io__condiode
xI19 VSSA VDDA sky130_fd_io__condiode
XI18 VSSA nmid_h_s sky130_fd_io__res75only_small
XI1 AMUXBUS_L NGATE_SL_H mid mid sky130_fd_pr__nfet_g5v0d10v5 m=30 w=10.0 l=0.5
+ mult=1 sa=0.265 sb=0.265 sd=0.28 topography=normal area=0.063 perim=1.14
XI2 mid NGATE_SR_H AMUXBUS_R mid sky130_fd_pr__nfet_g5v0d10v5 m=30 w=10.0 l=0.5
+ mult=1 sa=0.265 sb=0.265 sd=0.28 topography=normal area=0.063 perim=1.14
XI4 mid NMID_H nmid_h_s VSSA sky130_fd_pr__nfet_g5v0d10v5 m=2 w=5.0 l=0.5 mult=1
+ sa=0.265 sb=0.265 sd=0.28 topography=normal area=0.063 perim=1.14
XI0 mid PGATE_SL_H_N AMUXBUS_L VDDA sky130_fd_pr__pfet_g5v0d10v5 m=14 w=10.0
+ l=0.5 mult=1 sa=0.265 sb=0.265 sd=0.28 topography=normal area=0.063 perim=1.14
XI3 AMUXBUS_R PGATE_SR_H_N mid VDDA sky130_fd_pr__pfet_g5v0d10v5 m=14 w=10.0
+ l=0.5 mult=1 sa=0.265 sb=0.265 sd=0.28 topography=normal area=0.063 perim=1.14
.ENDS sky130_fd_io__amuxsplitv2_switch

* Copyright 2020 The SkyWater PDK Authors
*
* Licensed under the Apache License, Version 2.0 (the "License");
* you may not use this file except in compliance with the License.
* You may obtain a copy of the License at
*
*     https://www.apache.org/licenses/LICENSE-2.0
*
* Unless required by applicable law or agreed to in writing, software
* distributed under the License is distributed on an "AS IS" BASIS,
* WITHOUT WARRANTIES OR CONDITIONS OF ANY KIND, either express or implied.
* See the License for the specific language governing permissions and
* limitations under the License.
*
* SPDX-License-Identifier: Apache-2.0

.SUBCKT sky130_fd_io__amuxsplitv2_switch_levelshifter FBK FBK_N HOLD RESET
+ SWITCH_LV SWITCH_LV_N VGND VPWR_HV VPWR_LV
*.PININFO FBK:O FBK_N:O HOLD:I RESET:I SWITCH_LV:I SWITCH_LV_N:I
*.PININFO VGND:B VPWR_HV:B VPWR_LV:B
XI184 FBK RESET VGND VGND sky130_fd_pr__nfet_g5v0d10v5 m=1 w=3.0 l=0.6 mult=1
+ sa=0.265 sb=0.265 sd=0.28 topography=normal area=0.063 perim=1.14
XI183 net97 VPWR_LV net109 VGND sky130_fd_pr__nfet_05v0_nvt m=4 w=1.0 l=0.9
+ mult=1 sa=0.265 sb=0.265 sd=0.28 topography=normal area=0.063 perim=1.14
XI18 FBK HOLD net105 VGND sky130_fd_pr__nfet_g5v0d10v5 m=1 w=3.0 l=0.6 mult=1
+ sa=0.265 sb=0.265 sd=0.28 topography=normal area=0.063 perim=1.14
XI182 net105 VPWR_LV net117 VGND sky130_fd_pr__nfet_05v0_nvt m=4 w=1.0 l=0.9
+ mult=1 sa=0.265 sb=0.265 sd=0.28 topography=normal area=0.063 perim=1.14
XI16 net109 SWITCH_LV VGND VGND sky130_fd_pr__nfet_01v8_lvt m=4 w=1.0 l=0.15
+ mult=1 sa=0.265 sb=0.265 sd=0.28 topography=normal area=0.063 perim=1.14
XI15 FBK_N HOLD net97 VGND sky130_fd_pr__nfet_g5v0d10v5 m=1 w=3.0 l=0.6 mult=1
+ sa=0.265 sb=0.265 sd=0.28 topography=normal area=0.063 perim=1.14
XI19 net117 SWITCH_LV_N VGND VGND sky130_fd_pr__nfet_01v8_lvt m=4 w=1.0 l=0.15
+ mult=1 sa=0.265 sb=0.265 sd=0.28 topography=normal area=0.063 perim=1.14
XI185 FBK_N FBK VPWR_HV VPWR_HV sky130_fd_pr__pfet_g5v0d10v5 m=1 w=0.75 l=0.5
+ mult=1 sa=0.265 sb=0.265 sd=0.28 topography=normal area=0.063 perim=1.14
XI20 FBK FBK_N VPWR_HV VPWR_HV sky130_fd_pr__pfet_g5v0d10v5 m=1 w=0.75 l=0.5
+ mult=1 sa=0.265 sb=0.265 sd=0.28 topography=normal area=0.063 perim=1.14
.ENDS sky130_fd_io__amuxsplitv2_switch_levelshifter

* Copyright 2020 The SkyWater PDK Authors
*
* Licensed under the Apache License, Version 2.0 (the "License");
* you may not use this file except in compliance with the License.
* You may obtain a copy of the License at
*
*     https://www.apache.org/licenses/LICENSE-2.0
*
* Unless required by applicable law or agreed to in writing, software
* distributed under the License is distributed on an "AS IS" BASIS,
* WITHOUT WARRANTIES OR CONDITIONS OF ANY KIND, either express or implied.
* See the License for the specific language governing permissions and
* limitations under the License.
*
* SPDX-License-Identifier: Apache-2.0

.SUBCKT sky130_fd_io__amuxsplitv2_switch_s0 HOLD IN_LV OUT_H RESET VCCD VDDA
+ VSSA VSSD
*.PININFO HOLD:I IN_LV:I OUT_H:O RESET:I VCCD:B VDDA:B VSSA:B VSSD:B
XI0 net17 net13 HOLD RESET in_lv_i in_lv_n VSSA VDDA VCCD
+ sky130_fd_io__amuxsplitv2_switch_levelshifter
XI22 in_lv_n IN_LV VSSD VSSD sky130_fd_pr__nfet_01v8 m=1 w=1.0 l=0.25 mult=1
+ sa=0.265 sb=0.265 sd=0.28 topography=normal area=0.063 perim=1.14
XI21 in_lv_i in_lv_n VSSD VSSD sky130_fd_pr__nfet_01v8 m=1 w=1.0 l=0.25 mult=1
+ sa=0.265 sb=0.265 sd=0.28 topography=normal area=0.063 perim=1.14
XI16 OUT_H net13 VSSA VSSA sky130_fd_pr__nfet_g5v0d10v5 m=1 w=1.0 l=0.6 mult=1
+ sa=0.265 sb=0.265 sd=0.28 topography=normal area=0.063 perim=1.14
XI20 in_lv_n IN_LV VCCD VCCD sky130_fd_pr__pfet_01v8_hvt m=1 w=1.0 l=0.25 mult=1
+ sa=0.265 sb=0.265 sd=0.28 topography=normal area=0.063 perim=1.14
XI19 in_lv_i in_lv_n VCCD VCCD sky130_fd_pr__pfet_01v8_hvt m=1 w=1.0 l=0.25
+ mult=1 sa=0.265 sb=0.265 sd=0.28 topography=normal area=0.063 perim=1.14
XI15 OUT_H net13 VDDA VDDA sky130_fd_pr__pfet_g5v0d10v5 m=1 w=3.0 l=0.6 mult=1
+ sa=0.265 sb=0.265 sd=0.28 topography=normal area=0.063 perim=1.14
.ENDS sky130_fd_io__amuxsplitv2_switch_s0

* Copyright 2020 The SkyWater PDK Authors
*
* Licensed under the Apache License, Version 2.0 (the "License");
* you may not use this file except in compliance with the License.
* You may obtain a copy of the License at
*
*     https://www.apache.org/licenses/LICENSE-2.0
*
* Unless required by applicable law or agreed to in writing, software
* distributed under the License is distributed on an "AS IS" BASIS,
* WITHOUT WARRANTIES OR CONDITIONS OF ANY KIND, either express or implied.
* See the License for the specific language governing permissions and
* limitations under the License.
*
* SPDX-License-Identifier: Apache-2.0

.SUBCKT sky130_fd_io__amuxsplitv2_switch_sl HOLD IN_LV OUT_H OUT_H_N RESET VCCD
+ VDDA VSSA VSSD VSWITCH
*.PININFO HOLD:I IN_LV:I OUT_H:O OUT_H_N:O RESET:I VCCD:B VDDA:B
*.PININFO VSSA:B VSSD:B VSWITCH:B
XI0 net39 net35 HOLD RESET in_lv_i in_lv_n VSSA VDDA VCCD
+ sky130_fd_io__amuxsplitv2_switch_levelshifter
XI1 net48 net44 HOLD RESET in_lv_i in_lv_n VSSA VSWITCH VCCD
+ sky130_fd_io__amuxsplitv2_switch_levelshifter
XI14 OUT_H net44 VSWITCH VSWITCH sky130_fd_pr__pfet_g5v0d10v5 m=1 w=3.0 l=0.6
+ mult=1 sa=0.265 sb=0.265 sd=0.28 topography=normal area=0.063 perim=1.14
XI15 OUT_H_N net39 VDDA VDDA sky130_fd_pr__pfet_g5v0d10v5 m=1 w=3.0 l=0.6 mult=1
+ sa=0.265 sb=0.265 sd=0.28 topography=normal area=0.063 perim=1.14
XI19 in_lv_i in_lv_n VCCD VCCD sky130_fd_pr__pfet_01v8_hvt m=1 w=1.0 l=0.25
+ mult=1 sa=0.265 sb=0.265 sd=0.28 topography=normal area=0.063 perim=1.14
XI20 in_lv_n IN_LV VCCD VCCD sky130_fd_pr__pfet_01v8_hvt m=1 w=1.0 l=0.25 mult=1
+ sa=0.265 sb=0.265 sd=0.28 topography=normal area=0.063 perim=1.14
XI13 OUT_H net44 VSSA VSSA sky130_fd_pr__nfet_g5v0d10v5 m=1 w=1.0 l=0.6 mult=1
+ sa=0.265 sb=0.265 sd=0.28 topography=normal area=0.063 perim=1.14
XI16 OUT_H_N net39 VSSA VSSA sky130_fd_pr__nfet_g5v0d10v5 m=1 w=1.0 l=0.6 mult=1
+ sa=0.265 sb=0.265 sd=0.28 topography=normal area=0.063 perim=1.14
XI21 in_lv_i in_lv_n VSSD VSSD sky130_fd_pr__nfet_01v8 m=1 w=1.0 l=0.25 mult=1
+ sa=0.265 sb=0.265 sd=0.28 topography=normal area=0.063 perim=1.14
XI22 in_lv_n IN_LV VSSD VSSD sky130_fd_pr__nfet_01v8 m=1 w=1.0 l=0.25 mult=1
+ sa=0.265 sb=0.265 sd=0.28 topography=normal area=0.063 perim=1.14
.ENDS sky130_fd_io__amuxsplitv2_switch_sl

* Copyright 2020 The SkyWater PDK Authors
*
* Licensed under the Apache License, Version 2.0 (the "License");
* you may not use this file except in compliance with the License.
* You may obtain a copy of the License at
*
*     https://www.apache.org/licenses/LICENSE-2.0
*
* Unless required by applicable law or agreed to in writing, software
* distributed under the License is distributed on an "AS IS" BASIS,
* WITHOUT WARRANTIES OR CONDITIONS OF ANY KIND, either express or implied.
* See the License for the specific language governing permissions and
* limitations under the License.
*
* SPDX-License-Identifier: Apache-2.0

.SUBCKT sky130_fd_io__amx_inv1 A Y VDA VSSA
*.PININFO A:I Y:O VDA:I VSSA:I
XI92 Y A VSSA VSSA sky130_fd_pr__nfet_g5v0d10v5 m=1 w=0.75 l=0.5 mult=1 sa=0.265
+ sb=0.265 sd=0.28 topography=normal area=0.063 perim=1.14
XI54 Y A VDA VDA sky130_fd_pr__pfet_g5v0d10v5 m=1 w=1.5 l=0.5 mult=1 sa=0.265
+ sb=0.265 sd=0.28 topography=normal area=0.063 perim=1.14
.ENDS sky130_fd_io__amx_inv1

* Copyright 2020 The SkyWater PDK Authors
*
* Licensed under the Apache License, Version 2.0 (the "License");
* you may not use this file except in compliance with the License.
* You may obtain a copy of the License at
*
*     https://www.apache.org/licenses/LICENSE-2.0
*
* Unless required by applicable law or agreed to in writing, software
* distributed under the License is distributed on an "AS IS" BASIS,
* WITHOUT WARRANTIES OR CONDITIONS OF ANY KIND, either express or implied.
* See the License for the specific language governing permissions and
* limitations under the License.
*
* SPDX-License-Identifier: Apache-2.0

.SUBCKT sky130_fd_io__com_cclat DRVHI_H DRVLO_H_N OE_H_N PD_DIS_H PU_DIS_H
+ VCC_IO VGND
*.PININFO DRVHI_H:O DRVLO_H_N:O OE_H_N:I PD_DIS_H:I PU_DIS_H:I
*.PININFO VCC_IO:I VGND:I
Xnor3_q0 oe_i_h_n DRVHI_H PD_DIS_H n1 VCC_IO VGND VGND
+ sky130_fd_io__com_cclat_hvnor3
Xnand3_q0 oe_i_h DRVLO_H_N pu_dis_h_n n0 VCC_IO VGND VGND
+ sky130_fd_io__com_cclat_hvnand3
Xinv_oe1_q0 OE_H_N oe_i_h VCC_IO VGND VGND sky130_fd_io__com_cclat_inv_in
Xinv_oe2_q0 oe_i_h oe_i_h_n VCC_IO VGND VGND sky130_fd_io__com_cclat_inv_in
Xinv_pudis_q0 PU_DIS_H pu_dis_h_n VCC_IO VGND VGND
+ sky130_fd_io__com_cclat_inv_in
Xinv_out_q0 n1 DRVLO_H_N VCC_IO VGND VGND sky130_fd_io__com_cclat_inv_out
Xinv_out_1_q0 n0 DRVHI_H VCC_IO VGND VGND sky130_fd_io__com_cclat_inv_out
.ENDS sky130_fd_io__com_cclat

* Copyright 2020 The SkyWater PDK Authors
*
* Licensed under the Apache License, Version 2.0 (the "License");
* you may not use this file except in compliance with the License.
* You may obtain a copy of the License at
*
*     https://www.apache.org/licenses/LICENSE-2.0
*
* Unless required by applicable law or agreed to in writing, software
* distributed under the License is distributed on an "AS IS" BASIS,
* WITHOUT WARRANTIES OR CONDITIONS OF ANY KIND, either express or implied.
* See the License for the specific language governing permissions and
* limitations under the License.
*
* SPDX-License-Identifier: Apache-2.0

.SUBCKT sky130_fd_io__com_cclat_hvnand3 IN0 IN1 IN2 OUT VCC_IO VGND VNB
*.PININFO IN0:I IN1:I IN2:I OUT:O VCC_IO:I VGND:I VNB:I
Xmp0_q0 OUT IN0 VCC_IO VCC_IO sky130_fd_pr__pfet_g5v0d10v5 m=1 w=5.0 l=0.5
+ mult=1 sa=0.265 sb=0.265 sd=0.28 topography=normal area=0.063 perim=1.14
Xmp2_q0 OUT IN2 VCC_IO VCC_IO sky130_fd_pr__pfet_g5v0d10v5 m=1 w=5.0 l=0.5
+ mult=1 sa=0.265 sb=0.265 sd=0.28 topography=normal area=0.063 perim=1.14
Xmp1_q0 OUT IN1 VCC_IO VCC_IO sky130_fd_pr__pfet_g5v0d10v5 m=1 w=5.0 l=0.5
+ mult=1 sa=0.265 sb=0.265 sd=0.28 topography=normal area=0.063 perim=1.14
Xmn2_q0 OUT IN2 n1 VNB sky130_fd_pr__nfet_g5v0d10v5 m=2 w=3.0 l=0.6 mult=1
+ sa=0.265 sb=0.265 sd=0.28 topography=normal area=0.063 perim=1.14
Xmn0_q0 n0 IN0 VGND VNB sky130_fd_pr__nfet_g5v0d10v5 m=4 w=3.0 l=0.6 mult=1
+ sa=0.265 sb=0.265 sd=0.28 topography=normal area=0.063 perim=1.14
Xmn1_q0 n1 IN1 n0 VNB sky130_fd_pr__nfet_g5v0d10v5 m=2 w=3.0 l=0.6 mult=1
+ sa=0.265 sb=0.265 sd=0.28 topography=normal area=0.063 perim=1.14
.ENDS sky130_fd_io__com_cclat_hvnand3

* Copyright 2020 The SkyWater PDK Authors
*
* Licensed under the Apache License, Version 2.0 (the "License");
* you may not use this file except in compliance with the License.
* You may obtain a copy of the License at
*
*     https://www.apache.org/licenses/LICENSE-2.0
*
* Unless required by applicable law or agreed to in writing, software
* distributed under the License is distributed on an "AS IS" BASIS,
* WITHOUT WARRANTIES OR CONDITIONS OF ANY KIND, either express or implied.
* See the License for the specific language governing permissions and
* limitations under the License.
*
* SPDX-License-Identifier: Apache-2.0

.SUBCKT sky130_fd_io__com_cclat_hvnor3 IN0 IN1 IN2 OUT VCC_IO VGND VNB
*.PININFO IN0:I IN1:I IN2:I OUT:O VCC_IO:I VGND:I VNB:I
Xmp0_q0 n<0> IN0 VCC_IO VCC_IO sky130_fd_pr__pfet_g5v0d10v5 m=8 w=5.0 l=0.6
+ mult=1 sa=0.265 sb=0.265 sd=0.28 topography=normal area=0.063 perim=1.14
Xmp2_q0 OUT IN2 n<1> VCC_IO sky130_fd_pr__pfet_g5v0d10v5 m=4 w=5.0 l=0.5 mult=1
+ sa=0.265 sb=0.265 sd=0.28 topography=normal area=0.063 perim=1.14
Xmp1_q0 n<1> IN1 n<0> VCC_IO sky130_fd_pr__pfet_g5v0d10v5 m=4 w=5.0 l=0.5 mult=1
+ sa=0.265 sb=0.265 sd=0.28 topography=normal area=0.063 perim=1.14
Xmn0_q0 OUT IN0 VGND VNB sky130_fd_pr__nfet_g5v0d10v5 m=2 w=3.0 l=0.6 mult=1
+ sa=0.265 sb=0.265 sd=0.28 topography=normal area=0.063 perim=1.14
Xmn2_q0 OUT IN2 VGND VNB sky130_fd_pr__nfet_g5v0d10v5 m=2 w=3.0 l=0.6 mult=1
+ sa=0.265 sb=0.265 sd=0.28 topography=normal area=0.063 perim=1.14
Xmn1_q0 OUT IN1 VGND VNB sky130_fd_pr__nfet_g5v0d10v5 m=2 w=3.0 l=0.6 mult=1
+ sa=0.265 sb=0.265 sd=0.28 topography=normal area=0.063 perim=1.14
.ENDS sky130_fd_io__com_cclat_hvnor3

* Copyright 2020 The SkyWater PDK Authors
*
* Licensed under the Apache License, Version 2.0 (the "License");
* you may not use this file except in compliance with the License.
* You may obtain a copy of the License at
*
*     https://www.apache.org/licenses/LICENSE-2.0
*
* Unless required by applicable law or agreed to in writing, software
* distributed under the License is distributed on an "AS IS" BASIS,
* WITHOUT WARRANTIES OR CONDITIONS OF ANY KIND, either express or implied.
* See the License for the specific language governing permissions and
* limitations under the License.
*
* SPDX-License-Identifier: Apache-2.0

.SUBCKT sky130_fd_io__com_cclat_i2c_fix DRVHI_H DRVLO_H_N OE_H PD_DIS_H PU_DIS_H
+ VCC_IO VGND
*.PININFO DRVHI_H:O DRVLO_H_N:O OE_H:I PD_DIS_H:I PU_DIS_H:I VCC_IO:I
*.PININFO VGND:I
Xnor3_q0 oe_i_h_n DRVHI_H PD_DIS_H n1 VCC_IO VGND VGND
+ sky130_fd_io__com_cclat_hvnor3
Xnand3_q0 OE_H DRVLO_H_N pu_dis_h_n n0 VCC_IO VGND VGND
+ sky130_fd_io__com_cclat_hvnand3
Xinv_oe2_q0 OE_H oe_i_h_n VCC_IO VGND VGND sky130_fd_io__com_cclat_inv_in
Xinv_pudis_q0 PU_DIS_H pu_dis_h_n VCC_IO VGND VGND
+ sky130_fd_io__com_cclat_inv_in
Xinv_out_q0 n1 DRVLO_H_N VCC_IO VGND VGND sky130_fd_io__com_cclat_inv_out
Xinv_out_1_q0 n0 DRVHI_H VCC_IO VGND VGND sky130_fd_io__com_cclat_inv_out
.ENDS sky130_fd_io__com_cclat_i2c_fix

* Copyright 2020 The SkyWater PDK Authors
*
* Licensed under the Apache License, Version 2.0 (the "License");
* you may not use this file except in compliance with the License.
* You may obtain a copy of the License at
*
*     https://www.apache.org/licenses/LICENSE-2.0
*
* Unless required by applicable law or agreed to in writing, software
* distributed under the License is distributed on an "AS IS" BASIS,
* WITHOUT WARRANTIES OR CONDITIONS OF ANY KIND, either express or implied.
* See the License for the specific language governing permissions and
* limitations under the License.
*
* SPDX-License-Identifier: Apache-2.0

.SUBCKT sky130_fd_io__com_cclat_inv_in IN OUT VCC_IO VGND VNB
*.PININFO IN:I OUT:O VCC_IO:I VGND:I VNB:I
Xmp1_q0 OUT IN VCC_IO VCC_IO sky130_fd_pr__pfet_g5v0d10v5 m=1 w=5.0 l=0.5 mult=1
+ sa=0.265 sb=0.265 sd=0.28 topography=normal area=0.063 perim=1.14
Xmn1_q0 OUT IN VGND VNB sky130_fd_pr__nfet_g5v0d10v5 m=1 w=3.0 l=0.6 mult=1
+ sa=0.265 sb=0.265 sd=0.28 topography=normal area=0.063 perim=1.14
.ENDS sky130_fd_io__com_cclat_inv_in

* Copyright 2020 The SkyWater PDK Authors
*
* Licensed under the Apache License, Version 2.0 (the "License");
* you may not use this file except in compliance with the License.
* You may obtain a copy of the License at
*
*     https://www.apache.org/licenses/LICENSE-2.0
*
* Unless required by applicable law or agreed to in writing, software
* distributed under the License is distributed on an "AS IS" BASIS,
* WITHOUT WARRANTIES OR CONDITIONS OF ANY KIND, either express or implied.
* See the License for the specific language governing permissions and
* limitations under the License.
*
* SPDX-License-Identifier: Apache-2.0

.SUBCKT sky130_fd_io__com_cclat_inv_out IN OUT VCC_IO VGND VNB
*.PININFO IN:I OUT:O VCC_IO:I VGND:I VNB:I
XI1 OUT IN VCC_IO VCC_IO sky130_fd_pr__pfet_g5v0d10v5 m=6 w=5.0 l=0.5 mult=1
+ sa=0.265 sb=0.265 sd=0.28 topography=normal area=0.063 perim=1.14
XI2 OUT IN VGND VNB sky130_fd_pr__nfet_g5v0d10v5 m=6 w=3.0 l=0.6 mult=1 sa=0.265
+ sb=0.265 sd=0.28 topography=normal area=0.063 perim=1.14
.ENDS sky130_fd_io__com_cclat_inv_out

* Copyright 2020 The SkyWater PDK Authors
*
* Licensed under the Apache License, Version 2.0 (the "License");
* you may not use this file except in compliance with the License.
* You may obtain a copy of the License at
*
*     https://www.apache.org/licenses/LICENSE-2.0
*
* Unless required by applicable law or agreed to in writing, software
* distributed under the License is distributed on an "AS IS" BASIS,
* WITHOUT WARRANTIES OR CONDITIONS OF ANY KIND, either express or implied.
* See the License for the specific language governing permissions and
* limitations under the License.
*
* SPDX-License-Identifier: Apache-2.0

.SUBCKT sky130_fd_io__com_ctl_ls HLD_H_N IN OUT_H OUT_H_N RST_H SET_H VCC_IO
+ VGND VPWR
*.PININFO HLD_H_N:I IN:I OUT_H:O OUT_H_N:O RST_H:I SET_H:I VCC_IO:I
*.PININFO VGND:I VPWR:I
XI14 OUT_H_N fbk VCC_IO VCC_IO sky130_fd_pr__pfet_g5v0d10v5 m=1 w=3.0 l=0.6
+ mult=1 sa=0.265 sb=0.265 sd=0.28 topography=normal area=0.063 perim=1.14
XI34 in_i in_i_n VPWR VPWR sky130_fd_pr__pfet_01v8_hvt m=1 w=1.0 l=0.25 mult=1
+ sa=0.265 sb=0.265 sd=0.28 topography=normal area=0.063 perim=1.14
XI29 in_i_n IN VPWR VPWR sky130_fd_pr__pfet_01v8_hvt m=1 w=1.0 l=0.25 mult=1
+ sa=0.265 sb=0.265 sd=0.28 topography=normal area=0.063 perim=1.14
XI11 OUT_H fbk_n VCC_IO VCC_IO sky130_fd_pr__pfet_g5v0d10v5 m=1 w=3.0 l=0.6
+ mult=1 sa=0.265 sb=0.265 sd=0.28 topography=normal area=0.063 perim=1.14
XI2 fbk fbk_n VCC_IO VCC_IO sky130_fd_pr__pfet_g5v0d10v5 m=1 w=0.75 l=0.5 mult=1
+ sa=0.265 sb=0.265 sd=0.28 topography=normal area=0.063 perim=1.14
XI1 fbk_n fbk VCC_IO VCC_IO sky130_fd_pr__pfet_g5v0d10v5 m=1 w=0.75 l=0.5 mult=1
+ sa=0.265 sb=0.265 sd=0.28 topography=normal area=0.063 perim=1.14
XI13 OUT_H_N fbk VGND VGND sky130_fd_pr__nfet_g5v0d10v5 m=1 w=1.0 l=0.6 mult=1
+ sa=0.265 sb=0.265 sd=0.28 topography=normal area=0.063 perim=1.14
Xmnset_q0 fbk_n SET_H VGND VGND sky130_fd_pr__nfet_g5v0d10v5 m=1 w=3.0 l=0.6
+ mult=1 sa=0.265 sb=0.265 sd=0.28 topography=normal area=0.063 perim=1.14
XI32 in_i in_i_n VGND VGND sky130_fd_pr__nfet_01v8 m=1 w=1.0 l=0.25 mult=1
+ sa=0.265 sb=0.265 sd=0.28 topography=normal area=0.063 perim=1.14
XI12 OUT_H fbk_n VGND VGND sky130_fd_pr__nfet_g5v0d10v5 m=1 w=1.0 l=0.6 mult=1
+ sa=0.265 sb=0.265 sd=0.28 topography=normal area=0.063 perim=1.14
XI58 net130 VPWR net94 VGND sky130_fd_pr__nfet_05v0_nvt m=4 w=1.0 l=0.9 mult=1
+ sa=0.265 sb=0.265 sd=0.28 topography=normal area=0.063 perim=1.14
Xmnrst_q0 fbk RST_H VGND VGND sky130_fd_pr__nfet_g5v0d10v5 m=1 w=3.0 l=0.6
+ mult=1 sa=0.265 sb=0.265 sd=0.28 topography=normal area=0.063 perim=1.14
XI59 net122 VPWR net98 VGND sky130_fd_pr__nfet_05v0_nvt m=4 w=1.0 l=0.9 mult=1
+ sa=0.265 sb=0.265 sd=0.28 topography=normal area=0.063 perim=1.14
XI6 fbk_n HLD_H_N net122 VGND sky130_fd_pr__nfet_g5v0d10v5 m=1 w=3.0 l=0.6
+ mult=1 sa=0.265 sb=0.265 sd=0.28 topography=normal area=0.063 perim=1.14
XI27 in_i_n IN VGND VGND sky130_fd_pr__nfet_01v8 m=1 w=1.0 l=0.25 mult=1
+ sa=0.265 sb=0.265 sd=0.28 topography=normal area=0.063 perim=1.14
XI5 fbk HLD_H_N net130 VGND sky130_fd_pr__nfet_g5v0d10v5 m=1 w=3.0 l=0.6 mult=1
+ sa=0.265 sb=0.265 sd=0.28 topography=normal area=0.063 perim=1.14
XI4 fbk_n fbk VGND VGND sky130_fd_pr__nfet_g5v0d10v5 m=1 w=0.75 l=1.0 mult=1
+ sa=0.265 sb=0.265 sd=0.28 topography=normal area=0.063 perim=1.14
XI3 fbk fbk_n VGND VGND sky130_fd_pr__nfet_g5v0d10v5 m=1 w=0.75 l=1.0 mult=1
+ sa=0.265 sb=0.265 sd=0.28 topography=normal area=0.063 perim=1.14
XI8 net98 in_i VGND VGND sky130_fd_pr__nfet_01v8_lvt m=4 w=1.0 l=0.15 mult=1
+ sa=0.265 sb=0.265 sd=0.28 topography=normal area=0.063 perim=1.14
XI7 net94 in_i_n VGND VGND sky130_fd_pr__nfet_01v8_lvt m=4 w=1.0 l=0.15 mult=1
+ sa=0.265 sb=0.265 sd=0.28 topography=normal area=0.063 perim=1.14
.ENDS sky130_fd_io__com_ctl_ls

* Copyright 2020 The SkyWater PDK Authors
*
* Licensed under the Apache License, Version 2.0 (the "License");
* you may not use this file except in compliance with the License.
* You may obtain a copy of the License at
*
*     https://www.apache.org/licenses/LICENSE-2.0
*
* Unless required by applicable law or agreed to in writing, software
* distributed under the License is distributed on an "AS IS" BASIS,
* WITHOUT WARRANTIES OR CONDITIONS OF ANY KIND, either express or implied.
* See the License for the specific language governing permissions and
* limitations under the License.
*
* SPDX-License-Identifier: Apache-2.0

.SUBCKT sky130_fd_io__com_inv_x1_dnw IN OUT VGND VPWR
*.PININFO IN:I OUT:O VGND:I VPWR:I
XI1 OUT IN VPWR VPWR sky130_fd_pr__pfet_g5v0d10v5 m=1 w=3.0 l=0.6 mult=1
+ sa=0.265 sb=0.265 sd=0.28 topography=normal area=0.063 perim=1.14
XI2 OUT IN VGND VGND sky130_fd_pr__nfet_g5v0d10v5 m=1 w=1.0 l=0.6 mult=1
+ sa=0.265 sb=0.265 sd=0.28 topography=normal area=0.063 perim=1.14
.ENDS sky130_fd_io__com_inv_x1_dnw

* Copyright 2020 The SkyWater PDK Authors
*
* Licensed under the Apache License, Version 2.0 (the "License");
* you may not use this file except in compliance with the License.
* You may obtain a copy of the License at
*
*     https://www.apache.org/licenses/LICENSE-2.0
*
* Unless required by applicable law or agreed to in writing, software
* distributed under the License is distributed on an "AS IS" BASIS,
* WITHOUT WARRANTIES OR CONDITIONS OF ANY KIND, either express or implied.
* See the License for the specific language governing permissions and
* limitations under the License.
*
* SPDX-License-Identifier: Apache-2.0

.SUBCKT sky130_fd_io__com_nand2_dnw IN0 IN1 OUT VGND VPWR
*.PININFO IN0:I IN1:I OUT:O VGND:I VPWR:I
XI3 OUT IN0 VPWR VPWR sky130_fd_pr__pfet_g5v0d10v5 m=1 w=3.0 l=0.6 mult=1
+ sa=0.265 sb=0.265 sd=0.28 topography=normal area=0.063 perim=1.14
XI5 OUT IN1 VPWR VPWR sky130_fd_pr__pfet_g5v0d10v5 m=1 w=3.0 l=0.6 mult=1
+ sa=0.265 sb=0.265 sd=0.28 topography=normal area=0.063 perim=1.14
XI1 OUT IN1 net25 VGND sky130_fd_pr__nfet_g5v0d10v5 m=1 w=1.0 l=0.6 mult=1
+ sa=0.265 sb=0.265 sd=0.28 topography=normal area=0.063 perim=1.14
XI6 net25 IN0 VGND VGND sky130_fd_pr__nfet_g5v0d10v5 m=1 w=1.0 l=0.6 mult=1
+ sa=0.265 sb=0.265 sd=0.28 topography=normal area=0.063 perim=1.14
.ENDS sky130_fd_io__com_nand2_dnw

* Copyright 2020 The SkyWater PDK Authors
*
* Licensed under the Apache License, Version 2.0 (the "License");
* you may not use this file except in compliance with the License.
* You may obtain a copy of the License at
*
*     https://www.apache.org/licenses/LICENSE-2.0
*
* Unless required by applicable law or agreed to in writing, software
* distributed under the License is distributed on an "AS IS" BASIS,
* WITHOUT WARRANTIES OR CONDITIONS OF ANY KIND, either express or implied.
* See the License for the specific language governing permissions and
* limitations under the License.
*
* SPDX-License-Identifier: Apache-2.0

.SUBCKT sky130_fd_io__com_nor2_dnw IN0 IN1 OUT VGND VPWR
*.PININFO IN0:I IN1:I OUT:O VGND:I VPWR:I
XI3 net17 IN0 VPWR VPWR sky130_fd_pr__pfet_g5v0d10v5 m=1 w=3.0 l=0.6 mult=1
+ sa=0.265 sb=0.265 sd=0.28 topography=normal area=0.063 perim=1.14
XI12 OUT IN1 net17 VPWR sky130_fd_pr__pfet_g5v0d10v5 m=1 w=3.0 l=0.6 mult=1
+ sa=0.265 sb=0.265 sd=0.28 topography=normal area=0.063 perim=1.14
XI1 OUT IN0 VGND VGND sky130_fd_pr__nfet_g5v0d10v5 m=1 w=1.0 l=0.6 mult=1
+ sa=0.265 sb=0.265 sd=0.28 topography=normal area=0.063 perim=1.14
XI6 OUT IN1 VGND VGND sky130_fd_pr__nfet_g5v0d10v5 m=1 w=1.0 l=0.6 mult=1
+ sa=0.265 sb=0.265 sd=0.28 topography=normal area=0.063 perim=1.14
.ENDS sky130_fd_io__com_nor2_dnw

* Copyright 2020 The SkyWater PDK Authors
*
* Licensed under the Apache License, Version 2.0 (the "License");
* you may not use this file except in compliance with the License.
* You may obtain a copy of the License at
*
*     https://www.apache.org/licenses/LICENSE-2.0
*
* Unless required by applicable law or agreed to in writing, software
* distributed under the License is distributed on an "AS IS" BASIS,
* WITHOUT WARRANTIES OR CONDITIONS OF ANY KIND, either express or implied.
* See the License for the specific language governing permissions and
* limitations under the License.
*
* SPDX-License-Identifier: Apache-2.0

.SUBCKT sky130_fd_io__com_pad PAD VGND_IO
*.PININFO PAD:B VGND_IO:B
.ENDS sky130_fd_io__com_pad

* Copyright 2020 The SkyWater PDK Authors
*
* Licensed under the Apache License, Version 2.0 (the "License");
* you may not use this file except in compliance with the License.
* You may obtain a copy of the License at
*
*     https://www.apache.org/licenses/LICENSE-2.0
*
* Unless required by applicable law or agreed to in writing, software
* distributed under the License is distributed on an "AS IS" BASIS,
* WITHOUT WARRANTIES OR CONDITIONS OF ANY KIND, either express or implied.
* See the License for the specific language governing permissions and
* limitations under the License.
*
* SPDX-License-Identifier: Apache-2.0

.SUBCKT sky130_fd_io__com_pddrvr_unit_2_5 ND NGIN NS
*.PININFO ND:B NGIN:I NS:B
Xndrv_q0 ND NGIN NS NS sky130_fd_pr__nfet_g5v0d10v5 m=2 w=5.0 l=0.6 mult=1
+ sa=0.265 sb=0.265 sd=0.28 topography=normal area=0.063 perim=1.14
.ENDS sky130_fd_io__com_pddrvr_unit_2_5

* Copyright 2020 The SkyWater PDK Authors
*
* Licensed under the Apache License, Version 2.0 (the "License");
* you may not use this file except in compliance with the License.
* You may obtain a copy of the License at
*
*     https://www.apache.org/licenses/LICENSE-2.0
*
* Unless required by applicable law or agreed to in writing, software
* distributed under the License is distributed on an "AS IS" BASIS,
* WITHOUT WARRANTIES OR CONDITIONS OF ANY KIND, either express or implied.