*SPEF "ieee 1481-1999"
*DESIGN "chip_io"
*DATE "11:11:11 Fri 11 11, 1111"
*VENDOR "OpenRCX"
*PROGRAM "Parallel Extraction"
*VERSION "1.0"
*DESIGN_FLOW "NAME_SCOPE LOCAL" "PIN_CAP NONE"
*DIVIDER /
*DELIMITER :
*BUS_DELIMITER []
*T_UNIT 1 NS
*C_UNIT 1 PF
*R_UNIT 1 OHM
*L_UNIT 1 HENRY

*NAME_MAP
*1 clock
*2 clock_core
*3 por
*4 flash_clk
*5 flash_clk_core
*6 flash_clk_oeb_core
*7 flash_csb
*8 flash_csb_core
*9 flash_csb_oeb_core
*10 flash_io0
*11 flash_io0_di_core
*12 flash_io0_do_core
*13 flash_io0_ieb_core
*14 flash_io0_oeb_core
*15 flash_io1
*16 flash_io1_di_core
*17 flash_io1_do_core
*18 flash_io1_oeb_core
*19 gpio
*20 gpio_in_core
*21 gpio_inenb_core
*22 gpio_mode0_core
*23 gpio_mode1_core
*24 gpio_out_core
*25 gpio_outenb_core
*26 vccd_pad
*27 vdda_pad
*28 vddio_pad
*29 vddio_pad2
*30 vssa_pad
*31 vssd_pad
*32 vssio_pad
*33 vssio_pad2
*34 mprj_io[0]
*35 mprj_io_analog_en[0]
*36 mprj_io_analog_pol[0]
*37 mprj_io_analog_sel[0]
*38 mprj_io_dm[0]
*39 mprj_io_dm[1]
*40 mprj_io_dm[2]
*41 mprj_io_holdover[0]
*42 mprj_io_ib_mode_sel[0]
*43 mprj_io_inp_dis[0]
*44 mprj_io_oeb[0]
*45 mprj_io_out[0]
*46 mprj_io_slow_sel[0]
*47 mprj_io_vtrip_sel[0]
*48 mprj_io_in[0]
*49 mprj_analog_io[3]
*50 mprj_io[10]
*51 mprj_io_analog_en[10]
*52 mprj_io_analog_pol[10]
*53 mprj_io_analog_sel[10]
*54 mprj_io_dm[30]
*55 mprj_io_dm[31]
*56 mprj_io_dm[32]
*57 mprj_io_holdover[10]
*58 mprj_io_ib_mode_sel[10]
*59 mprj_io_inp_dis[10]
*60 mprj_io_oeb[10]
*61 mprj_io_out[10]
*62 mprj_io_slow_sel[10]
*63 mprj_io_vtrip_sel[10]
*64 mprj_io_in[10]
*65 mprj_analog_io[4]
*66 mprj_io[11]
*67 mprj_io_analog_en[11]
*68 mprj_io_analog_pol[11]
*69 mprj_io_analog_sel[11]
*70 mprj_io_dm[33]
*71 mprj_io_dm[34]
*72 mprj_io_dm[35]
*73 mprj_io_holdover[11]
*74 mprj_io_ib_mode_sel[11]
*75 mprj_io_inp_dis[11]
*76 mprj_io_oeb[11]
*77 mprj_io_out[11]
*78 mprj_io_slow_sel[11]
*79 mprj_io_vtrip_sel[11]
*80 mprj_io_in[11]
*81 mprj_analog_io[5]
*82 mprj_io[12]
*83 mprj_io_analog_en[12]
*84 mprj_io_analog_pol[12]
*85 mprj_io_analog_sel[12]
*86 mprj_io_dm[36]
*87 mprj_io_dm[37]
*88 mprj_io_dm[38]
*89 mprj_io_holdover[12]
*90 mprj_io_ib_mode_sel[12]
*91 mprj_io_inp_dis[12]
*92 mprj_io_oeb[12]
*93 mprj_io_out[12]
*94 mprj_io_slow_sel[12]
*95 mprj_io_vtrip_sel[12]
*96 mprj_io_in[12]
*97 mprj_analog_io[6]
*98 mprj_io[13]
*99 mprj_io_analog_en[13]
*100 mprj_io_analog_pol[13]
*101 mprj_io_analog_sel[13]
*102 mprj_io_dm[39]
*103 mprj_io_dm[40]
*104 mprj_io_dm[41]
*105 mprj_io_holdover[13]
*106 mprj_io_ib_mode_sel[13]
*107 mprj_io_inp_dis[13]
*108 mprj_io_oeb[13]
*109 mprj_io_out[13]
*110 mprj_io_slow_sel[13]
*111 mprj_io_vtrip_sel[13]
*112 mprj_io_in[13]
*113 mprj_analog_io[7]
*114 mprj_io[14]
*115 mprj_io_analog_en[14]
*116 mprj_io_analog_pol[14]
*117 mprj_io_analog_sel[14]
*118 mprj_io_dm[42]
*119 mprj_io_dm[43]
*120 mprj_io_dm[44]
*121 mprj_io_holdover[14]
*122 mprj_io_ib_mode_sel[14]
*123 mprj_io_inp_dis[14]
*124 mprj_io_oeb[14]
*125 mprj_io_out[14]
*126 mprj_io_slow_sel[14]
*127 mprj_io_vtrip_sel[14]
*128 mprj_io_in[14]
*129 mprj_analog_io[8]
*130 mprj_io[15]
*131 mprj_io_analog_en[15]
*132 mprj_io_analog_pol[15]
*133 mprj_io_analog_sel[15]
*134 mprj_io_dm[45]
*135 mprj_io_dm[46]
*136 mprj_io_dm[47]
*137 mprj_io_holdover[15]
*138 mprj_io_ib_mode_sel[15]
*139 mprj_io_inp_dis[15]
*140 mprj_io_oeb[15]
*141 mprj_io_out[15]
*142 mprj_io_slow_sel[15]
*143 mprj_io_vtrip_sel[15]
*144 mprj_io_in[15]
*145 mprj_analog_io[9]
*146 mprj_io[16]
*147 mprj_io_analog_en[16]
*148 mprj_io_analog_pol[16]
*149 mprj_io_analog_sel[16]
*150 mprj_io_dm[48]
*151 mprj_io_dm[49]
*152 mprj_io_dm[50]
*153 mprj_io_holdover[16]
*154 mprj_io_ib_mode_sel[16]
*155 mprj_io_inp_dis[16]
*156 mprj_io_oeb[16]
*157 mprj_io_out[16]
*158 mprj_io_slow_sel[16]
*159 mprj_io_vtrip_sel[16]
*160 mprj_io_in[16]
*161 mprj_analog_io[10]
*162 mprj_io[17]
*163 mprj_io_analog_en[17]
*164 mprj_io_analog_pol[17]
*165 mprj_io_analog_sel[17]
*166 mprj_io_dm[51]
*167 mprj_io_dm[52]
*168 mprj_io_dm[53]
*169 mprj_io_holdover[17]
*170 mprj_io_ib_mode_sel[17]
*171 mprj_io_inp_dis[17]
*172 mprj_io_oeb[17]
*173 mprj_io_out[17]
*174 mprj_io_slow_sel[17]
*175 mprj_io_vtrip_sel[17]
*176 mprj_io_in[17]
*177 mprj_analog_io[11]
*178 mprj_io[18]
*179 mprj_io_analog_en[18]
*180 mprj_io_analog_pol[18]
*181 mprj_io_analog_sel[18]
*182 mprj_io_dm[54]
*183 mprj_io_dm[55]
*184 mprj_io_dm[56]
*185 mprj_io_holdover[18]
*186 mprj_io_ib_mode_sel[18]
*187 mprj_io_inp_dis[18]
*188 mprj_io_oeb[18]
*189 mprj_io_out[18]
*190 mprj_io_slow_sel[18]
*191 mprj_io_vtrip_sel[18]
*192 mprj_io_in[18]
*193 mprj_io[1]
*194 mprj_io_analog_en[1]
*195 mprj_io_analog_pol[1]
*196 mprj_io_analog_sel[1]
*197 mprj_io_dm[3]
*198 mprj_io_dm[4]
*199 mprj_io_dm[5]
*200 mprj_io_holdover[1]
*201 mprj_io_ib_mode_sel[1]
*202 mprj_io_inp_dis[1]
*203 mprj_io_oeb[1]
*204 mprj_io_out[1]
*205 mprj_io_slow_sel[1]
*206 mprj_io_vtrip_sel[1]
*207 mprj_io_in[1]
*208 mprj_io[2]
*209 mprj_io_analog_en[2]
*210 mprj_io_analog_pol[2]
*211 mprj_io_analog_sel[2]
*212 mprj_io_dm[6]
*213 mprj_io_dm[7]
*214 mprj_io_dm[8]
*215 mprj_io_holdover[2]
*216 mprj_io_ib_mode_sel[2]
*217 mprj_io_inp_dis[2]
*218 mprj_io_oeb[2]
*219 mprj_io_out[2]
*220 mprj_io_slow_sel[2]
*221 mprj_io_vtrip_sel[2]
*222 mprj_io_in[2]
*223 mprj_io[3]
*224 mprj_io_analog_en[3]
*225 mprj_io_analog_pol[3]
*226 mprj_io_analog_sel[3]
*227 mprj_io_dm[10]
*228 mprj_io_dm[11]
*229 mprj_io_dm[9]
*230 mprj_io_holdover[3]
*231 mprj_io_ib_mode_sel[3]
*232 mprj_io_inp_dis[3]
*233 mprj_io_oeb[3]
*234 mprj_io_out[3]
*235 mprj_io_slow_sel[3]
*236 mprj_io_vtrip_sel[3]
*237 mprj_io_in[3]
*238 mprj_io[4]
*239 mprj_io_analog_en[4]
*240 mprj_io_analog_pol[4]
*241 mprj_io_analog_sel[4]
*242 mprj_io_dm[12]
*243 mprj_io_dm[13]
*244 mprj_io_dm[14]
*245 mprj_io_holdover[4]
*246 mprj_io_ib_mode_sel[4]
*247 mprj_io_inp_dis[4]
*248 mprj_io_oeb[4]
*249 mprj_io_out[4]
*250 mprj_io_slow_sel[4]
*251 mprj_io_vtrip_sel[4]
*252 mprj_io_in[4]
*253 mprj_io[5]
*254 mprj_io_analog_en[5]
*255 mprj_io_analog_pol[5]
*256 mprj_io_analog_sel[5]
*257 mprj_io_dm[15]
*258 mprj_io_dm[16]
*259 mprj_io_dm[17]
*260 mprj_io_holdover[5]
*261 mprj_io_ib_mode_sel[5]
*262 mprj_io_inp_dis[5]
*263 mprj_io_oeb[5]
*264 mprj_io_out[5]
*265 mprj_io_slow_sel[5]
*266 mprj_io_vtrip_sel[5]
*267 mprj_io_in[5]
*268 mprj_io[6]
*269 mprj_io_analog_en[6]
*270 mprj_io_analog_pol[6]
*271 mprj_io_analog_sel[6]
*272 mprj_io_dm[18]
*273 mprj_io_dm[19]
*274 mprj_io_dm[20]
*275 mprj_io_holdover[6]
*276 mprj_io_ib_mode_sel[6]
*277 mprj_io_inp_dis[6]
*278 mprj_io_oeb[6]
*279 mprj_io_out[6]
*280 mprj_io_slow_sel[6]
*281 mprj_io_vtrip_sel[6]
*282 mprj_io_in[6]
*283 mprj_analog_io[0]
*284 mprj_io[7]
*285 mprj_io_analog_en[7]
*286 mprj_io_analog_pol[7]
*287 mprj_io_analog_sel[7]
*288 mprj_io_dm[21]
*289 mprj_io_dm[22]
*290 mprj_io_dm[23]
*291 mprj_io_holdover[7]
*292 mprj_io_ib_mode_sel[7]
*293 mprj_io_inp_dis[7]
*294 mprj_io_oeb[7]
*295 mprj_io_out[7]
*296 mprj_io_slow_sel[7]
*297 mprj_io_vtrip_sel[7]
*298 mprj_io_in[7]
*299 mprj_analog_io[1]
*300 mprj_io[8]
*301 mprj_io_analog_en[8]
*302 mprj_io_analog_pol[8]
*303 mprj_io_analog_sel[8]
*304 mprj_io_dm[24]
*305 mprj_io_dm[25]
*306 mprj_io_dm[26]
*307 mprj_io_holdover[8]
*308 mprj_io_ib_mode_sel[8]
*309 mprj_io_inp_dis[8]
*310 mprj_io_oeb[8]
*311 mprj_io_out[8]
*312 mprj_io_slow_sel[8]
*313 mprj_io_vtrip_sel[8]
*314 mprj_io_in[8]
*315 mprj_analog_io[2]
*316 mprj_io[9]
*317 mprj_io_analog_en[9]
*318 mprj_io_analog_pol[9]
*319 mprj_io_analog_sel[9]
*320 mprj_io_dm[27]
*321 mprj_io_dm[28]
*322 mprj_io_dm[29]
*323 mprj_io_holdover[9]
*324 mprj_io_ib_mode_sel[9]
*325 mprj_io_inp_dis[9]
*326 mprj_io_oeb[9]
*327 mprj_io_out[9]
*328 mprj_io_slow_sel[9]
*329 mprj_io_vtrip_sel[9]
*330 mprj_io_in[9]
*331 mprj_analog_io[12]
*332 mprj_io[19]
*333 mprj_io_analog_en[19]
*334 mprj_io_analog_pol[19]
*335 mprj_io_analog_sel[19]
*336 mprj_io_dm[57]
*337 mprj_io_dm[58]
*338 mprj_io_dm[59]
*339 mprj_io_holdover[19]
*340 mprj_io_ib_mode_sel[19]
*341 mprj_io_inp_dis[19]
*342 mprj_io_oeb[19]
*343 mprj_io_out[19]
*344 mprj_io_slow_sel[19]
*345 mprj_io_vtrip_sel[19]
*346 mprj_io_in[19]
*347 mprj_analog_io[22]
*348 mprj_io[29]
*349 mprj_io_analog_en[29]
*350 mprj_io_analog_pol[29]
*351 mprj_io_analog_sel[29]
*352 mprj_io_dm[87]
*353 mprj_io_dm[88]
*354 mprj_io_dm[89]
*355 mprj_io_holdover[29]
*356 mprj_io_ib_mode_sel[29]
*357 mprj_io_inp_dis[29]
*358 mprj_io_oeb[29]
*359 mprj_io_out[29]
*360 mprj_io_slow_sel[29]
*361 mprj_io_vtrip_sel[29]
*362 mprj_io_in[29]
*363 mprj_analog_io[23]
*364 mprj_io[30]
*365 mprj_io_analog_en[30]
*366 mprj_io_analog_pol[30]
*367 mprj_io_analog_sel[30]
*368 mprj_io_dm[90]
*369 mprj_io_dm[91]
*370 mprj_io_dm[92]
*371 mprj_io_holdover[30]
*372 mprj_io_ib_mode_sel[30]
*373 mprj_io_inp_dis[30]
*374 mprj_io_oeb[30]
*375 mprj_io_out[30]
*376 mprj_io_slow_sel[30]
*377 mprj_io_vtrip_sel[30]
*378 mprj_io_in[30]
*379 mprj_analog_io[24]
*380 mprj_io[31]
*381 mprj_io_analog_en[31]
*382 mprj_io_analog_pol[31]
*383 mprj_io_analog_sel[31]
*384 mprj_io_dm[93]
*385 mprj_io_dm[94]
*386 mprj_io_dm[95]
*387 mprj_io_holdover[31]
*388 mprj_io_ib_mode_sel[31]
*389 mprj_io_inp_dis[31]
*390 mprj_io_oeb[31]
*391 mprj_io_out[31]
*392 mprj_io_slow_sel[31]
*393 mprj_io_vtrip_sel[31]
*394 mprj_io_in[31]
*395 mprj_analog_io[25]
*396 mprj_io[32]
*397 mprj_io_analog_en[32]
*398 mprj_io_analog_pol[32]
*399 mprj_io_analog_sel[32]
*400 mprj_io_dm[96]
*401 mprj_io_dm[97]
*402 mprj_io_dm[98]
*403 mprj_io_holdover[32]
*404 mprj_io_ib_mode_sel[32]
*405 mprj_io_inp_dis[32]
*406 mprj_io_oeb[32]
*407 mprj_io_out[32]
*408 mprj_io_slow_sel[32]
*409 mprj_io_vtrip_sel[32]
*410 mprj_io_in[32]
*411 mprj_analog_io[26]
*412 mprj_io[33]
*413 mprj_io_analog_en[33]
*414 mprj_io_analog_pol[33]
*415 mprj_io_analog_sel[33]
*416 mprj_io_dm[100]
*417 mprj_io_dm[101]
*418 mprj_io_dm[99]
*419 mprj_io_holdover[33]
*420 mprj_io_ib_mode_sel[33]
*421 mprj_io_inp_dis[33]
*422 mprj_io_oeb[33]
*423 mprj_io_out[33]
*424 mprj_io_slow_sel[33]
*425 mprj_io_vtrip_sel[33]
*426 mprj_io_in[33]
*427 mprj_analog_io[27]
*428 mprj_io[34]
*429 mprj_io_analog_en[34]
*430 mprj_io_analog_pol[34]
*431 mprj_io_analog_sel[34]
*432 mprj_io_dm[102]
*433 mprj_io_dm[103]
*434 mprj_io_dm[104]
*435 mprj_io_holdover[34]
*436 mprj_io_ib_mode_sel[34]
*437 mprj_io_inp_dis[34]
*438 mprj_io_oeb[34]
*439 mprj_io_out[34]
*440 mprj_io_slow_sel[34]
*441 mprj_io_vtrip_sel[34]
*442 mprj_io_in[34]
*443 mprj_analog_io[28]
*444 mprj_io[35]
*445 mprj_io_analog_en[35]
*446 mprj_io_analog_pol[35]
*447 mprj_io_analog_sel[35]
*448 mprj_io_dm[105]
*449 mprj_io_dm[106]
*450 mprj_io_dm[107]
*451 mprj_io_holdover[35]
*452 mprj_io_ib_mode_sel[35]
*453 mprj_io_inp_dis[35]
*454 mprj_io_oeb[35]
*455 mprj_io_out[35]
*456 mprj_io_slow_sel[35]
*457 mprj_io_vtrip_sel[35]
*458 mprj_io_in[35]
*459 mprj_io[36]
*460 mprj_io_analog_en[36]
*461 mprj_io_analog_pol[36]
*462 mprj_io_analog_sel[36]
*463 mprj_io_dm[108]
*464 mprj_io_dm[109]
*465 mprj_io_dm[110]
*466 mprj_io_holdover[36]
*467 mprj_io_ib_mode_sel[36]
*468 mprj_io_inp_dis[36]
*469 mprj_io_oeb[36]
*470 mprj_io_out[36]
*471 mprj_io_slow_sel[36]
*472 mprj_io_vtrip_sel[36]
*473 mprj_io_in[36]
*474 mprj_io[37]
*475 mprj_io_analog_en[37]
*476 mprj_io_analog_pol[37]
*477 mprj_io_analog_sel[37]
*478 mprj_io_dm[111]
*479 mprj_io_dm[112]
*480 mprj_io_dm[113]
*481 mprj_io_holdover[37]
*482 mprj_io_ib_mode_sel[37]
*483 mprj_io_inp_dis[37]
*484 mprj_io_oeb[37]
*485 mprj_io_out[37]
*486 mprj_io_slow_sel[37]
*487 mprj_io_vtrip_sel[37]
*488 mprj_io_in[37]
*489 mprj_analog_io[13]
*490 mprj_io[20]
*491 mprj_io_analog_en[20]
*492 mprj_io_analog_pol[20]
*493 mprj_io_analog_sel[20]
*494 mprj_io_dm[60]
*495 mprj_io_dm[61]
*496 mprj_io_dm[62]
*497 mprj_io_holdover[20]
*498 mprj_io_ib_mode_sel[20]
*499 mprj_io_inp_dis[20]
*500 mprj_io_oeb[20]
*501 mprj_io_out[20]
*502 mprj_io_slow_sel[20]
*503 mprj_io_vtrip_sel[20]
*504 mprj_io_in[20]
*505 mprj_analog_io[14]
*506 mprj_io[21]
*507 mprj_io_analog_en[21]
*508 mprj_io_analog_pol[21]
*509 mprj_io_analog_sel[21]
*510 mprj_io_dm[63]
*511 mprj_io_dm[64]
*512 mprj_io_dm[65]
*513 mprj_io_holdover[21]
*514 mprj_io_ib_mode_sel[21]
*515 mprj_io_inp_dis[21]
*516 mprj_io_oeb[21]
*517 mprj_io_out[21]
*518 mprj_io_slow_sel[21]
*519 mprj_io_vtrip_sel[21]
*520 mprj_io_in[21]
*521 mprj_analog_io[15]
*522 mprj_io[22]
*523 mprj_io_analog_en[22]
*524 mprj_io_analog_pol[22]
*525 mprj_io_analog_sel[22]
*526 mprj_io_dm[66]
*527 mprj_io_dm[67]
*528 mprj_io_dm[68]
*529 mprj_io_holdover[22]
*530 mprj_io_ib_mode_sel[22]
*531 mprj_io_inp_dis[22]
*532 mprj_io_oeb[22]
*533 mprj_io_out[22]
*534 mprj_io_slow_sel[22]
*535 mprj_io_vtrip_sel[22]
*536 mprj_io_in[22]
*537 mprj_analog_io[16]
*538 mprj_io[23]
*539 mprj_io_analog_en[23]
*540 mprj_io_analog_pol[23]
*541 mprj_io_analog_sel[23]
*542 mprj_io_dm[69]
*543 mprj_io_dm[70]
*544 mprj_io_dm[71]
*545 mprj_io_holdover[23]
*546 mprj_io_ib_mode_sel[23]
*547 mprj_io_inp_dis[23]
*548 mprj_io_oeb[23]
*549 mprj_io_out[23]
*550 mprj_io_slow_sel[23]
*551 mprj_io_vtrip_sel[23]
*552 mprj_io_in[23]
*553 mprj_analog_io[17]
*554 mprj_io[24]
*555 mprj_io_analog_en[24]
*556 mprj_io_analog_pol[24]
*557 mprj_io_analog_sel[24]
*558 mprj_io_dm[72]
*559 mprj_io_dm[73]
*560 mprj_io_dm[74]
*561 mprj_io_holdover[24]
*562 mprj_io_ib_mode_sel[24]
*563 mprj_io_inp_dis[24]
*564 mprj_io_oeb[24]
*565 mprj_io_out[24]
*566 mprj_io_slow_sel[24]
*567 mprj_io_vtrip_sel[24]
*568 mprj_io_in[24]
*569 mprj_analog_io[18]
*570 mprj_io[25]
*571 mprj_io_analog_en[25]
*572 mprj_io_analog_pol[25]
*573 mprj_io_analog_sel[25]
*574 mprj_io_dm[75]
*575 mprj_io_dm[76]
*576 mprj_io_dm[77]
*577 mprj_io_holdover[25]
*578 mprj_io_ib_mode_sel[25]
*579 mprj_io_inp_dis[25]
*580 mprj_io_oeb[25]
*581 mprj_io_out[25]
*582 mprj_io_slow_sel[25]
*583 mprj_io_vtrip_sel[25]
*584 mprj_io_in[25]
*585 mprj_analog_io[19]
*586 mprj_io[26]
*587 mprj_io_analog_en[26]
*588 mprj_io_analog_pol[26]
*589 mprj_io_analog_sel[26]
*590 mprj_io_dm[78]
*591 mprj_io_dm[79]
*592 mprj_io_dm[80]
*593 mprj_io_holdover[26]
*594 mprj_io_ib_mode_sel[26]
*595 mprj_io_inp_dis[26]
*596 mprj_io_oeb[26]
*597 mprj_io_out[26]
*598 mprj_io_slow_sel[26]
*599 mprj_io_vtrip_sel[26]
*600 mprj_io_in[26]
*601 mprj_analog_io[20]
*602 mprj_io[27]
*603 mprj_io_analog_en[27]
*604 mprj_io_analog_pol[27]
*605 mprj_io_analog_sel[27]
*606 mprj_io_dm[81]
*607 mprj_io_dm[82]
*608 mprj_io_dm[83]
*609 mprj_io_holdover[27]
*610 mprj_io_ib_mode_sel[27]
*611 mprj_io_inp_dis[27]
*612 mprj_io_oeb[27]
*613 mprj_io_out[27]
*614 mprj_io_slow_sel[27]
*615 mprj_io_vtrip_sel[27]
*616 mprj_io_in[27]
*617 mprj_analog_io[21]
*618 mprj_io[28]
*619 mprj_io_analog_en[28]
*620 mprj_io_analog_pol[28]
*621 mprj_io_analog_sel[28]
*622 mprj_io_dm[84]
*623 mprj_io_dm[85]
*624 mprj_io_dm[86]
*625 mprj_io_holdover[28]
*626 mprj_io_ib_mode_sel[28]
*627 mprj_io_inp_dis[28]
*628 mprj_io_oeb[28]
*629 mprj_io_out[28]
*630 mprj_io_slow_sel[28]
*631 mprj_io_vtrip_sel[28]
*632 mprj_io_in[28]
*633 resetb
*634 vdda
*635 vccd1_pad
*636 vdda1_pad
*637 vdda1_pad2
*638 vssa1_pad
*639 vssa1_pad2
*640 vssd1_pad
*641 vccd2_pad
*642 vdda2_pad
*643 vssa2_pad
*644 vdda2
*645 vssa2
*646 vssd2_pad
*647 resetb_core_h
*648 vssd2
*649 vccd2
*650 vssd1
*651 vccd1
*652 mprj_io_one[0]
*653 mprj_io_one[1]
*654 mprj_io_one[2]
*655 mprj_io_one[3]
*656 mprj_io_one[4]
*657 mprj_io_one[5]
*658 mprj_io_one[6]
*659 mprj_io_one[7]
*660 mprj_io_one[8]
*661 mprj_io_one[9]
*662 mprj_io_one[10]
*663 mprj_io_one[11]
*664 mprj_io_one[12]
*665 mprj_io_one[13]
*666 mprj_io_one[14]
*667 mprj_io_one[15]
*668 mprj_io_one[16]
*669 mprj_io_one[17]
*670 mprj_io_one[18]
*671 mprj_io_one[19]
*672 mprj_io_one[20]
*673 mprj_io_one[21]
*674 mprj_io_one[22]
*675 mprj_io_one[23]
*676 mprj_io_one[24]
*677 mprj_io_one[25]
*678 mprj_io_one[26]
*679 mprj_io_one[27]
*680 mprj_io_one[28]
*681 mprj_io_one[29]
*682 mprj_io_one[30]
*683 mprj_io_one[31]
*684 mprj_io_one[32]
*685 mprj_io_one[33]
*686 mprj_io_one[34]
*687 mprj_io_one[35]
*688 mprj_io_one[36]
*689 mprj_io_one[37]
*690 flash_io1_ieb_core
*691 porb_h
*692 vccd
*693 vdda1
*694 vddio
*695 vssa
*696 vssa1
*697 vssd
*698 vssio
*699 clock_pad__OE_N
*700 mprj_pads\.area1_io_pad\[13\]__TIE_LO_ESD
*701 mprj_pads\.area1_io_pad\[13\]__HLD_H_N
*702 mprj_pads\.area1_io_pad\[13\]__PAD_A_ESD_1_H
*703 mprj_pads\.area1_io_pad\[13\]__PAD_A_NOESD_H
*704 mprj_pads\.area1_io_pad\[13\]__IN_H
*705 flash_clk_pad__TIE_LO_ESD
*706 flash_clk_pad__IN
*707 flash_clk_pad__HLD_H_N
*708 flash_clk_pad__SLOW
*709 flash_clk_pad__PAD_A_ESD_0_H
*710 flash_clk_pad__PAD_A_ESD_1_H
*711 flash_clk_pad__PAD_A_NOESD_H
*712 flash_clk_pad__IN_H
*713 constant_block_0__zero
*714 mprj_pads\.area1_io_pad\[9\]__TIE_LO_ESD
*715 mprj_pads\.area1_io_pad\[9\]__HLD_H_N
*716 mprj_pads\.area1_io_pad\[9\]__PAD_A_ESD_1_H
*717 mprj_pads\.area1_io_pad\[9\]__PAD_A_NOESD_H
*718 mprj_pads\.area1_io_pad\[9\]__IN_H
*719 gpio_pad__VDDIO_Q
*720 gpio_pad__VSSIO_Q
*721 gpio_pad__AMUXBUS_A
*722 gpio_pad__AMUXBUS_B
*723 flash_io0_pad__TIE_LO_ESD
*724 flash_io0_pad__HLD_H_N
*725 flash_io0_pad__SLOW
*726 flash_io0_pad__PAD_A_ESD_0_H
*727 flash_io0_pad__PAD_A_ESD_1_H
*728 flash_io0_pad__PAD_A_NOESD_H
*729 flash_io0_pad__IN_H
*730 mprj_pads\.area2_io_pad\[9\]__PAD_A_ESD_1_H
*731 mprj_pads\.area2_io_pad\[9\]__PAD_A_NOESD_H
*732 mprj_pads\.area2_io_pad\[9\]__HLD_H_N
*733 mprj_pads\.area2_io_pad\[9\]__TIE_LO_ESD
*734 mprj_pads\.area2_io_pad\[9\]__IN_H
*735 mprj_pads\.area1_io_pad\[15\]__PAD_A_ESD_1_H
*736 mprj_pads\.area1_io_pad\[15\]__PAD_A_NOESD_H
*737 mprj_pads\.area1_io_pad\[15\]__HLD_H_N
*738 mprj_pads\.area1_io_pad\[15\]__TIE_LO_ESD
*739 mprj_pads\.area1_io_pad\[15\]__IN_H
*740 mprj_pads\.area1_io_pad\[0\]__TIE_LO_ESD
*741 mprj_pads\.area1_io_pad\[0\]__HLD_H_N
*742 mprj_pads\.area1_io_pad\[0\]__PAD_A_ESD_0_H
*743 mprj_pads\.area1_io_pad\[0\]__PAD_A_ESD_1_H
*744 mprj_pads\.area1_io_pad\[0\]__PAD_A_NOESD_H
*745 mprj_pads\.area1_io_pad\[0\]__IN_H
*746 mprj_pads\.area2_io_pad\[0\]__PAD_A_ESD_1_H
*747 mprj_pads\.area2_io_pad\[0\]__PAD_A_NOESD_H
*748 mprj_pads\.area2_io_pad\[0\]__HLD_H_N
*749 mprj_pads\.area2_io_pad\[0\]__TIE_LO_ESD
*750 mprj_pads\.area2_io_pad\[0\]__IN_H
*751 mprj_pads\.area2_io_pad\[10\]__PAD_A_ESD_1_H
*752 mprj_pads\.area2_io_pad\[10\]__PAD_A_NOESD_H
*753 mprj_pads\.area2_io_pad\[10\]__HLD_H_N
*754 mprj_pads\.area2_io_pad\[10\]__TIE_LO_ESD
*755 mprj_pads\.area2_io_pad\[10\]__IN_H
*756 mprj_pads\.area1_io_pad\[17\]__PAD_A_ESD_1_H
*757 mprj_pads\.area1_io_pad\[17\]__PAD_A_NOESD_H
*758 mprj_pads\.area1_io_pad\[17\]__HLD_H_N
*759 mprj_pads\.area1_io_pad\[17\]__TIE_LO_ESD
*760 mprj_pads\.area1_io_pad\[17\]__IN_H
*761 mprj_pads\.area1_io_pad\[2\]__TIE_LO_ESD
*762 mprj_pads\.area1_io_pad\[2\]__HLD_H_N
*763 mprj_pads\.area1_io_pad\[2\]__PAD_A_ESD_0_H
*764 mprj_pads\.area1_io_pad\[2\]__PAD_A_ESD_1_H
*765 mprj_pads\.area1_io_pad\[2\]__PAD_A_NOESD_H
*766 mprj_pads\.area1_io_pad\[2\]__IN_H
*767 mprj_pads\.area2_io_pad\[2\]__PAD_A_ESD_1_H
*768 mprj_pads\.area2_io_pad\[2\]__PAD_A_NOESD_H
*769 mprj_pads\.area2_io_pad\[2\]__HLD_H_N
*770 mprj_pads\.area2_io_pad\[2\]__TIE_LO_ESD
*771 mprj_pads\.area2_io_pad\[2\]__IN_H
*772 mprj_pads\.area2_io_pad\[12\]__PAD_A_ESD_1_H
*773 mprj_pads\.area2_io_pad\[12\]__PAD_A_NOESD_H
*774 mprj_pads\.area2_io_pad\[12\]__HLD_H_N
*775 mprj_pads\.area2_io_pad\[12\]__TIE_LO_ESD
*776 mprj_pads\.area2_io_pad\[12\]__IN_H
*777 mprj_pads\.area1_io_pad\[4\]__TIE_LO_ESD
*778 mprj_pads\.area1_io_pad\[4\]__HLD_H_N
*779 mprj_pads\.area1_io_pad\[4\]__PAD_A_ESD_0_H
*780 mprj_pads\.area1_io_pad\[4\]__PAD_A_ESD_1_H
*781 mprj_pads\.area1_io_pad\[4\]__PAD_A_NOESD_H
*782 mprj_pads\.area1_io_pad\[4\]__IN_H
*783 mprj_pads\.area2_io_pad\[4\]__PAD_A_ESD_1_H
*784 mprj_pads\.area2_io_pad\[4\]__PAD_A_NOESD_H
*785 mprj_pads\.area2_io_pad\[4\]__HLD_H_N
*786 mprj_pads\.area2_io_pad\[4\]__TIE_LO_ESD
*787 mprj_pads\.area2_io_pad\[4\]__IN_H
*788 mprj_pads\.area2_io_pad\[14\]__PAD_A_ESD_1_H
*789 mprj_pads\.area2_io_pad\[14\]__PAD_A_NOESD_H
*790 mprj_pads\.area2_io_pad\[14\]__HLD_H_N
*791 mprj_pads\.area2_io_pad\[14\]__TIE_LO_ESD
*792 mprj_pads\.area2_io_pad\[14\]__IN_H
*793 flash_io1_pad__TIE_LO_ESD
*794 flash_io1_pad__HLD_H_N
*795 flash_io1_pad__SLOW
*796 flash_io1_pad__PAD_A_ESD_0_H
*797 flash_io1_pad__PAD_A_ESD_1_H
*798 flash_io1_pad__PAD_A_NOESD_H
*799 flash_io1_pad__IN_H
*800 mprj_pads\.area1_io_pad\[10\]__TIE_LO_ESD
*801 mprj_pads\.area1_io_pad\[10\]__HLD_H_N
*802 mprj_pads\.area1_io_pad\[10\]__PAD_A_ESD_1_H
*803 mprj_pads\.area1_io_pad\[10\]__PAD_A_NOESD_H
*804 mprj_pads\.area1_io_pad\[10\]__IN_H
*805 mprj_pads\.area1_io_pad\[6\]__TIE_LO_ESD
*806 mprj_pads\.area1_io_pad\[6\]__HLD_H_N
*807 mprj_pads\.area1_io_pad\[6\]__PAD_A_ESD_0_H
*808 mprj_pads\.area1_io_pad\[6\]__PAD_A_ESD_1_H
*809 mprj_pads\.area1_io_pad\[6\]__PAD_A_NOESD_H
*810 mprj_pads\.area1_io_pad\[6\]__IN_H
*811 flash_csb_pad__TIE_LO_ESD
*812 flash_csb_pad__IN
*813 flash_csb_pad__HLD_H_N
*814 flash_csb_pad__SLOW
*815 flash_csb_pad__PAD_A_ESD_0_H
*816 flash_csb_pad__PAD_A_ESD_1_H
*817 flash_csb_pad__PAD_A_NOESD_H
*818 flash_csb_pad__IN_H
*819 mprj_pads\.area2_io_pad\[6\]__PAD_A_ESD_1_H
*820 mprj_pads\.area2_io_pad\[6\]__PAD_A_NOESD_H
*821 mprj_pads\.area2_io_pad\[6\]__HLD_H_N
*822 mprj_pads\.area2_io_pad\[6\]__TIE_LO_ESD
*823 mprj_pads\.area2_io_pad\[6\]__IN_H
*824 mprj_pads\.area2_io_pad\[16\]__PAD_A_ESD_1_H
*825 mprj_pads\.area2_io_pad\[16\]__PAD_A_NOESD_H
*826 mprj_pads\.area2_io_pad\[16\]__HLD_H_N
*827 mprj_pads\.area2_io_pad\[16\]__TIE_LO_ESD
*828 mprj_pads\.area2_io_pad\[16\]__IN_H
*829 mprj_pads\.area1_io_pad\[12\]__TIE_LO_ESD
*830 mprj_pads\.area1_io_pad\[12\]__HLD_H_N
*831 mprj_pads\.area1_io_pad\[12\]__PAD_A_ESD_1_H
*832 mprj_pads\.area1_io_pad\[12\]__PAD_A_NOESD_H
*833 mprj_pads\.area1_io_pad\[12\]__IN_H
*834 xresloop
*835 constant_block_0__one
*836 xres_vss_loop
*837 resetb_pad__TIE_HI_ESD
*838 mprj_pads\.area1_io_pad\[8\]__TIE_LO_ESD
*839 mprj_pads\.area1_io_pad\[8\]__HLD_H_N
*840 mprj_pads\.area1_io_pad\[8\]__PAD_A_ESD_1_H
*841 mprj_pads\.area1_io_pad\[8\]__PAD_A_NOESD_H
*842 mprj_pads\.area1_io_pad\[8\]__IN_H
*843 mprj_pads\.area2_io_pad\[8\]__PAD_A_ESD_1_H
*844 mprj_pads\.area2_io_pad\[8\]__PAD_A_NOESD_H
*845 mprj_pads\.area2_io_pad\[8\]__HLD_H_N
*846 mprj_pads\.area2_io_pad\[8\]__TIE_LO_ESD
*847 mprj_pads\.area2_io_pad\[8\]__IN_H
*848 mprj_pads\.area2_io_pad\[18\]__PAD_A_ESD_0_H
*849 mprj_pads\.area2_io_pad\[18\]__PAD_A_ESD_1_H
*850 mprj_pads\.area2_io_pad\[18\]__PAD_A_NOESD_H
*851 mprj_pads\.area2_io_pad\[18\]__HLD_H_N
*852 mprj_pads\.area2_io_pad\[18\]__TIE_LO_ESD
*853 mprj_pads\.area2_io_pad\[18\]__IN_H
*854 mprj_pads\.area1_io_pad\[14\]__TIE_LO_ESD
*855 mprj_pads\.area1_io_pad\[14\]__HLD_H_N
*856 mprj_pads\.area1_io_pad\[14\]__PAD_A_ESD_1_H
*857 mprj_pads\.area1_io_pad\[14\]__PAD_A_NOESD_H
*858 mprj_pads\.area1_io_pad\[14\]__IN_H
*859 mprj_pads\.area1_io_pad\[16\]__PAD_A_ESD_1_H
*860 mprj_pads\.area1_io_pad\[16\]__PAD_A_NOESD_H
*861 mprj_pads\.area1_io_pad\[16\]__HLD_H_N
*862 mprj_pads\.area1_io_pad\[16\]__TIE_LO_ESD
*863 mprj_pads\.area1_io_pad\[16\]__IN_H
*864 gpio_pad__TIE_LO_ESD
*865 gpio_pad__HLD_H_N
*866 gpio_pad__SLOW
*867 gpio_pad__PAD_A_ESD_0_H
*868 gpio_pad__PAD_A_ESD_1_H
*869 gpio_pad__PAD_A_NOESD_H
*870 gpio_pad__IN_H
*871 mprj_pads\.area1_io_pad\[1\]__TIE_LO_ESD
*872 mprj_pads\.area1_io_pad\[1\]__HLD_H_N
*873 mprj_pads\.area1_io_pad\[1\]__PAD_A_ESD_0_H
*874 mprj_pads\.area1_io_pad\[1\]__PAD_A_ESD_1_H
*875 mprj_pads\.area1_io_pad\[1\]__PAD_A_NOESD_H
*876 mprj_pads\.area1_io_pad\[1\]__IN_H
*877 mprj_pads\.area2_io_pad\[1\]__PAD_A_ESD_1_H
*878 mprj_pads\.area2_io_pad\[1\]__PAD_A_NOESD_H
*879 mprj_pads\.area2_io_pad\[1\]__HLD_H_N
*880 mprj_pads\.area2_io_pad\[1\]__TIE_LO_ESD
*881 mprj_pads\.area2_io_pad\[1\]__IN_H
*882 mprj_pads\.area2_io_pad\[11\]__PAD_A_ESD_1_H
*883 mprj_pads\.area2_io_pad\[11\]__PAD_A_NOESD_H
*884 mprj_pads\.area2_io_pad\[11\]__HLD_H_N
*885 mprj_pads\.area2_io_pad\[11\]__TIE_LO_ESD
*886 mprj_pads\.area2_io_pad\[11\]__IN_H
*887 mprj_pads\.area1_io_pad\[18\]__PAD_A_ESD_1_H
*888 mprj_pads\.area1_io_pad\[18\]__PAD_A_NOESD_H
*889 mprj_pads\.area1_io_pad\[18\]__HLD_H_N
*890 mprj_pads\.area1_io_pad\[18\]__TIE_LO_ESD
*891 mprj_pads\.area1_io_pad\[18\]__IN_H
*892 mprj_pads\.area1_io_pad\[3\]__TIE_LO_ESD
*893 mprj_pads\.area1_io_pad\[3\]__HLD_H_N
*894 mprj_pads\.area1_io_pad\[3\]__PAD_A_ESD_0_H
*895 mprj_pads\.area1_io_pad\[3\]__PAD_A_ESD_1_H
*896 mprj_pads\.area1_io_pad\[3\]__PAD_A_NOESD_H
*897 mprj_pads\.area1_io_pad\[3\]__IN_H
*898 mprj_pads\.area2_io_pad\[3\]__PAD_A_ESD_1_H
*899 mprj_pads\.area2_io_pad\[3\]__PAD_A_NOESD_H
*900 mprj_pads\.area2_io_pad\[3\]__HLD_H_N
*901 mprj_pads\.area2_io_pad\[3\]__TIE_LO_ESD
*902 mprj_pads\.area2_io_pad\[3\]__IN_H
*903 mprj_pads\.area2_io_pad\[13\]__PAD_A_ESD_1_H
*904 mprj_pads\.area2_io_pad\[13\]__PAD_A_NOESD_H
*905 mprj_pads\.area2_io_pad\[13\]__HLD_H_N
*906 mprj_pads\.area2_io_pad\[13\]__TIE_LO_ESD
*907 mprj_pads\.area2_io_pad\[13\]__IN_H
*908 constant_block_6__one
*909 mprj_pads\.area1_io_pad\[5\]__TIE_LO_ESD
*910 mprj_pads\.area1_io_pad\[5\]__HLD_H_N
*911 mprj_pads\.area1_io_pad\[5\]__PAD_A_ESD_0_H
*912 mprj_pads\.area1_io_pad\[5\]__PAD_A_ESD_1_H
*913 mprj_pads\.area1_io_pad\[5\]__PAD_A_NOESD_H
*914 mprj_pads\.area1_io_pad\[5\]__IN_H
*915 mprj_pads\.area2_io_pad\[5\]__PAD_A_ESD_1_H
*916 mprj_pads\.area2_io_pad\[5\]__PAD_A_NOESD_H
*917 mprj_pads\.area2_io_pad\[5\]__HLD_H_N
*918 mprj_pads\.area2_io_pad\[5\]__TIE_LO_ESD
*919 mprj_pads\.area2_io_pad\[5\]__IN_H
*920 constant_block_5__one
*921 mprj_pads\.area2_io_pad\[15\]__PAD_A_ESD_1_H
*922 mprj_pads\.area2_io_pad\[15\]__PAD_A_NOESD_H
*923 mprj_pads\.area2_io_pad\[15\]__HLD_H_N
*924 mprj_pads\.area2_io_pad\[15\]__TIE_LO_ESD
*925 mprj_pads\.area2_io_pad\[15\]__IN_H
*926 constant_block_4__one
*927 mprj_pads\.area1_io_pad\[11\]__TIE_LO_ESD
*928 mprj_pads\.area1_io_pad\[11\]__HLD_H_N
*929 mprj_pads\.area1_io_pad\[11\]__PAD_A_ESD_1_H
*930 mprj_pads\.area1_io_pad\[11\]__PAD_A_NOESD_H
*931 mprj_pads\.area1_io_pad\[11\]__IN_H
*932 flash_clk_pad__DM[2]
*933 mprj_pads\.area1_io_pad\[7\]__TIE_LO_ESD
*934 mprj_pads\.area1_io_pad\[7\]__HLD_H_N
*935 mprj_pads\.area1_io_pad\[7\]__PAD_A_ESD_1_H
*936 mprj_pads\.area1_io_pad\[7\]__PAD_A_NOESD_H
*937 mprj_pads\.area1_io_pad\[7\]__IN_H
*938 flash_csb_pad__DM[2]
*939 mprj_pads\.area2_io_pad\[7\]__PAD_A_ESD_1_H
*940 mprj_pads\.area2_io_pad\[7\]__PAD_A_NOESD_H
*941 mprj_pads\.area2_io_pad\[7\]__HLD_H_N
*942 mprj_pads\.area2_io_pad\[7\]__TIE_LO_ESD
*943 mprj_pads\.area2_io_pad\[7\]__IN_H
*944 mprj_pads\.area2_io_pad\[17\]__PAD_A_ESD_0_H
*945 mprj_pads\.area2_io_pad\[17\]__PAD_A_ESD_1_H
*946 mprj_pads\.area2_io_pad\[17\]__PAD_A_NOESD_H
*947 mprj_pads\.area2_io_pad\[17\]__HLD_H_N
*948 mprj_pads\.area2_io_pad\[17\]__TIE_LO_ESD
*949 mprj_pads\.area2_io_pad\[17\]__IN_H
*950 clock_pad__TIE_LO_ESD
*951 clock_pad__HLD_H_N
*952 clock_pad__OUT
*953 clock_pad__PAD_A_ESD_0_H
*954 clock_pad__PAD_A_ESD_1_H
*955 clock_pad__PAD_A_NOESD_H
*956 clock_pad__IN_H
*957 FILLER_170
*958 FILLER_374
*959 mgmt_corner\[0\]
*960 FILLER_171
*961 FILLER_172
*962 FILLER_174
*963 FILLER_173
*964 bus_tie_3
*965 bus_tie_2
*966 bus_tie_1
*967 bus_tie_6
*968 bus_tie_5
*969 bus_tie_4
*970 FILLER_181
*971 mgmt_vssa_hvclamp_pad
*972 FILLER_182
*973 FILLER_183
*974 FILLER_185
*975 FILLER_184
*976 FILLER_187
*977 FILLER_188
*978 FILLER_189
*979 FILLER_191
*980 FILLER_190
*981 bus_tie_7
*982 bus_tie_8
*983 bus_tie_9
*984 bus_tie_10
*985 bus_tie_11
*986 bus_tie_12
*987 FILLER_198
*988 resetb_pad
*989 FILLER_199
*990 FILLER_200
*991 FILLER_202
*992 FILLER_201
*993 constant_block_0
*994 FILLER_205
*995 FILLER_206
*996 FILLER_208
*997 FILLER_207
*998 bus_tie_13
*999 FILLER_204
*1000 bus_tie_16
*1001 bus_tie_15
*1002 bus_tie_14
*1003 FILLER_216
*1004 bus_tie_18
*1005 bus_tie_17
*1006 FILLER_215
*1007 clock_pad
*1008 FILLER_217
*1009 FILLER_219
*1010 FILLER_218
*1011 constant_block_1
*1012 FILLER_222
*1013 FILLER_223
*1014 FILLER_225
*1015 FILLER_224
*1016 bus_tie_19
*1017 FILLER_221
*1018 bus_tie_23
*1019 bus_tie_22
*1020 bus_tie_21
*1021 bus_tie_20
*1022 mgmt_vssd_lvclamp_pad
*1023 FILLER_233
*1024 FILLER_234
*1025 FILLER_236
*1026 FILLER_235
*1027 bus_tie_24
*1028 FILLER_232
*1029 FILLER_239
*1030 FILLER_240
*1031 FILLER_242
*1032 FILLER_241
*1033 bus_tie_26
*1034 bus_tie_25
*1035 FILLER_238
*1036 bus_tie_30
*1037 bus_tie_29
*1038 bus_tie_28
*1039 bus_tie_27
*1040 flash_csb_pad
*1041 FILLER_250
*1042 FILLER_251
*1043 FILLER_253
*1044 FILLER_252
*1045 FILLER_249
*1046 FILLER_255
*1047 constant_block_2
*1048 FILLER_256
*1049 FILLER_257
*1050 FILLER_259
*1051 FILLER_258
*1052 bus_tie_31
*1053 bus_tie_32
*1054 bus_tie_33
*1055 bus_tie_34
*1056 bus_tie_35
*1057 flash_clk_pad
*1058 FILLER_267
*1059 FILLER_268
*1060 FILLER_270
*1061 FILLER_269
*1062 bus_tie_36
*1063 FILLER_266
*1064 constant_block_3
*1065 FILLER_272
*1066 FILLER_273
*1067 FILLER_274
*1068 FILLER_276
*1069 FILLER_275
*1070 bus_tie_38
*1071 bus_tie_37
*1072 bus_tie_42
*1073 bus_tie_41
*1074 bus_tie_40
*1075 bus_tie_39
*1076 flash_io0_pad
*1077 FILLER_284
*1078 FILLER_285
*1079 FILLER_287
*1080 FILLER_286
*1081 FILLER_283
*1082 FILLER_289
*1083 constant_block_4
*1084 FILLER_290
*1085 FILLER_291
*1086 FILLER_293
*1087 FILLER_292
*1088 bus_tie_45
*1089 bus_tie_44
*1090 bus_tie_43
*1091 bus_tie_48
*1092 bus_tie_47
*1093 bus_tie_46
*1094 FILLER_300
*1095 flash_io1_pad
*1096 FILLER_301
*1097 FILLER_302
*1098 FILLER_304
*1099 FILLER_303
*1100 FILLER_306
*1101 constant_block_5
*1102 FILLER_307
*1103 FILLER_308
*1104 FILLER_310
*1105 FILLER_309
*1106 bus_tie_49
*1107 bus_tie_50
*1108 bus_tie_51
*1109 bus_tie_52
*1110 bus_tie_53
*1111 bus_tie_54
*1112 gpio_pad
*1113 FILLER_318
*1114 FILLER_319
*1115 FILLER_321
*1116 FILLER_320
*1117 FILLER_317
*1118 constant_block_6
*1119 FILLER_324
*1120 FILLER_325
*1121 FILLER_327
*1122 FILLER_326
*1123 bus_tie_55
*1124 FILLER_323
*1125 bus_tie_57
*1126 bus_tie_56
*1127 bus_tie_60
*1128 bus_tie_59
*1129 bus_tie_58
*1130 FILLER_334
*1131 mgmt_vssio_hvclamp_pad\[0\]
*1132 FILLER_335
*1133 FILLER_336
*1134 FILLER_338
*1135 FILLER_337
*1136 FILLER_341
*1137 FILLER_342
*1138 FILLER_340
*1139 FILLER_344
*1140 FILLER_343
*1141 bus_tie_64
*1142 bus_tie_63
*1143 bus_tie_62