*SPEF "ieee 1481-1999"
*DESIGN "buff8x20"
*DATE "11:11:11 Fri 11 11, 1111"
*VENDOR "OpenRCX"
*PROGRAM "Parallel Extraction"
*VERSION "1.0"
*DESIGN_FLOW "NAME_SCOPE LOCAL" "PIN_CAP NONE"
*DIVIDER /
*DELIMITER :
*BUS_DELIMITER []
*T_UNIT 1 NS
*C_UNIT 1 PF
*R_UNIT 1 OHM
*L_UNIT 1 HENRY

*NAME_MAP
*3 in[0]
*4 in[10]
*5 in[11]
*6 in[12]
*7 in[13]
*8 in[14]
*9 in[15]
*10 in[16]
*11 in[17]
*12 in[18]
*13 in[19]
*14 in[1]
*15 in[2]
*16 in[3]
*17 in[4]
*18 in[5]
*19 in[6]
*20 in[7]
*21 in[8]
*22 in[9]
*23 out[0]
*24 out[10]
*25 out[11]
*26 out[12]
*27 out[13]
*28 out[14]
*29 out[15]
*30 out[16]
*31 out[17]
*32 out[18]
*33 out[19]
*34 out[1]
*35 out[2]
*36 out[3]
*37 out[4]
*38 out[5]
*39 out[6]
*40 out[7]
*41 out[8]
*42 out[9]
*43 BUF\[0\]
*44 BUF\[10\]
*45 BUF\[11\]
*46 BUF\[12\]
*47 BUF\[13\]
*48 BUF\[14\]
*49 BUF\[15\]
*50 BUF\[16\]
*51 BUF\[17\]
*52 BUF\[18\]
*53 BUF\[19\]
*54 BUF\[1\]
*55 BUF\[2\]
*56 BUF\[3\]
*57 BUF\[4\]
*58 BUF\[5\]
*59 BUF\[6\]
*60 BUF\[7\]
*61 BUF\[8\]
*62 BUF\[9\]
*63 FILLER_0_0
*64 FILLER_0_22
*65 FILLER_0_29
*66 FILLER_0_41
*67 FILLER_0_53
*68 FILLER_0_57
*69 FILLER_0_71
*70 FILLER_0_77
*71 FILLER_0_8
*72 FILLER_1_0
*73 FILLER_1_14
*74 FILLER_1_30
*75 FILLER_1_54
*76 FILLER_1_57
*77 FILLER_1_71
*78 FILLER_1_77
*79 FILLER_2_0
*80 FILLER_2_20
*81 FILLER_2_29
*82 FILLER_2_41
*83 FILLER_2_53
*84 FILLER_2_57
*85 FILLER_2_70
*86 FILLER_3_0
*87 FILLER_3_20
*88 FILLER_3_32
*89 FILLER_3_40
*90 FILLER_3_53
*91 FILLER_3_57
*92 FILLER_3_71
*93 FILLER_3_77
*94 FILLER_4_0
*95 FILLER_4_23
*96 FILLER_4_27
*97 FILLER_4_29
*98 FILLER_4_45
*99 FILLER_4_61
*100 FILLER_4_73
*101 FILLER_4_77
*102 FILLER_4_8
*103 FILLER_5_0
*104 FILLER_5_22
*105 FILLER_5_38
*106 FILLER_5_54
*107 FILLER_5_57
*108 FILLER_5_71
*109 FILLER_5_77
*110 FILLER_5_8
*111 FILLER_6_0
*112 FILLER_6_12
*113 FILLER_6_24
*114 FILLER_6_29
*115 FILLER_6_43
*116 FILLER_6_55
*117 FILLER_6_57
*118 FILLER_6_71
*119 FILLER_6_77
*120 TAP_0
*121 TAP_1
*122 TAP_2
*123 TAP_3
*124 TAP_4
*125 TAP_5
*126 TAP_6
*127 TAP_7
*128 TAP_8

*PORTS
in[0] I
in[10] I
in[11] I
in[12] I
in[13] I
in[14] I
in[15] I
in[16] I
in[17] I
in[18] I
in[19] I
in[1] I
in[2] I
in[3] I
in[4] I
in[5] I
in[6] I
in[7] I
in[8] I
in[9] I
out[0] O
out[10] O
out[11] O
out[12] O
out[13] O
out[14] O
out[15] O
out[16] O
out[17] O
out[18] O
out[19] O
out[1] O
out[2] O
out[3] O
out[4] O
out[5] O
out[6] O
out[7] O
out[8] O
out[9] O

*D_NET *3 0.00127753
*CONN
*P in[0] I
*I *43:A I *D sky130_fd_sc_hd__buf_8
*CAP
1 in[0] 0.000555806
2 *43:A 0.000555806
3 *43:A out[0] 0.000165916
4 *43:A out[1] 0
5 *43:A *54:A 0
*RES
1 in[0] *43:A 24.3 
*END

*D_NET *4 0.00188267
*CONN
*P in[10] I
*I *44:A I *D sky130_fd_sc_hd__buf_8
*CAP
1 in[10] 0.000828768
2 *44:A 0.000828768
3 *44:A out[10] 0.000192593
4 *44:A *45:A 3.25376e-05
5 *44:A *62:A 0
*RES
1 in[10] *44:A 29.5679 
*END

*D_NET *5 0.00128939
*CONN
*P in[11] I
*I *45:A I *D sky130_fd_sc_hd__buf_8
*CAP
1 in[11] 0.000611712
2 *45:A 0.000611712
3 *45:A out[11] 3.34295e-05
4 *45:A *46:A 0
5 *44:A *45:A 3.25376e-05
*RES
1 in[11] *45:A 25.2286 
*END

*D_NET *6 0.00195532
*CONN
*P in[12] I
*I *46:A I *D sky130_fd_sc_hd__buf_8
*CAP
1 in[12] 0.000735445
2 *46:A 0.000735445
3 *46:A out[11] 0
4 *46:A *47:A 0.000484432
5 *45:A *46:A 0
*RES
1 in[12] *46:A 29.9607 
*END

*D_NET *7 0.002365
*CONN
*P in[13] I
*I *47:A I *D sky130_fd_sc_hd__buf_8
*CAP
1 in[13] 0.0007738
2 *47:A 0.0007738
3 *47:A out[13] 0.000166389
4 *47:A out[14] 0
5 *47:A *48:A 0.000166583
6 *46:A *47:A 0.000484432
*RES
1 in[13] *47:A 31.4786 
*END

*D_NET *8 0.00102875
*CONN
*P in[14] I
*I *48:A I *D sky130_fd_sc_hd__buf_8
*CAP
1 in[14] 0.000360217
2 *48:A 0.000360217
3 *48:A *49:A 0.000141734
4 *47:A *48:A 0.000166583
*RES
1 in[14] *48:A 22.2643 
*END

*D_NET *9 0.00148297
*CONN
*P in[15] I
*I *49:A I *D sky130_fd_sc_hd__buf_8
*CAP
1 in[15] 0.00040183
2 *49:A 0.00040183
3 *49:A out[14] 9.25014e-06
4 *49:A out[15] 0.000409589
5 *49:A *50:A 0.000118737
6 *48:A *49:A 0.000141734
*RES
1 in[15] *49:A 23.7821 
*END

*D_NET *10 0.00109467
*CONN
*P in[16] I
*I *50:A I *D sky130_fd_sc_hd__buf_8
*CAP
1 in[16] 0.000371074
2 *50:A 0.000371074
3 *50:A out[15] 0.000227736
4 *50:A out[16] 6.05161e-06
5 *50:A out[17] 0
6 *50:A *51:A 0
7 *49:A *50:A 0.000118737
*RES
1 in[16] *50:A 22.2464 
*END

*D_NET *11 0.000316634
*CONN
*P in[17] I
*I *51:A I *D sky130_fd_sc_hd__buf_8
*CAP
1 in[17] 0.000141941
2 *51:A 0.000141941
3 *51:A out[17] 3.27526e-05
4 *51:A *52:A 0
5 *50:A *51:A 0
*RES
1 in[17] *51:A 16.4429 
*END

*D_NET *12 0.00154103
*CONN
*P in[18] I
*I *52:A I *D sky130_fd_sc_hd__buf_8
*CAP
1 in[18] 0.000380893
2 *52:A 0.000380893
3 *52:A out[17] 0.000228765
4 *52:A out[18] 0.000128834
5 *52:A *53:A 0.000421644
6 *51:A *52:A 0
*RES
1 in[18] *52:A 25.3893 
*END

*D_NET *13 0.00261017
*CONN
*P in[19] I
*I *53:A I *D sky130_fd_sc_hd__buf_8
*CAP
1 in[19] 0.00083492
2 *53:A 0.00083492
3 *53:A out[18] 0.000293074
4 *53:A out[19] 0.000225616
5 *52:A *53:A 0.000421644
*RES
1 in[19] *53:A 34.2643 
*END

*D_NET *14 0.000698365
*CONN
*P in[1] I
*I *54:A I *D sky130_fd_sc_hd__buf_8
*CAP
1 in[1] 0.000289896
2 *54:A 0.000289896
3 *54:A out[1] 3.34295e-05
4 *54:A *55:A 8.51444e-05
5 *43:A *54:A 0
*RES
1 in[1] *54:A 19.7107 
*END

*D_NET *15 0.00156979
*CONN
*P in[2] I
*I *55:A I *D sky130_fd_sc_hd__buf_8
*CAP
1 in[2] 0.000532874
2 *55:A 0.000532874
3 *55:A out[1] 0.000418899
4 *55:A out[2] 0
5 *55:A out[3] 0
6 *55:A *56:A 0
7 *54:A *55:A 8.51444e-05
*RES
1 in[2] *55:A 25.6393 
*END

*D_NET *16 0.00037626
*CONN
*P in[3] I
*I *56:A I *D sky130_fd_sc_hd__buf_8
*CAP
1 in[3] 0.000154518
2 *56:A 0.000154518
3 *56:A out[3] 9.25014e-06
4 *56:A *57:A 5.79742e-05
5 *55:A *56:A 0
*RES
1 in[3] *56:A 16.9786 
*END

*D_NET *17 0.00173425
*CONN
*P in[4] I
*I *57:A I *D sky130_fd_sc_hd__buf_8
*CAP
1 in[4] 0.000655154
2 *57:A 0.000655154
3 *57:A out[3] 0.000365967
4 *57:A *58:A 0
5 *56:A *57:A 5.79742e-05
*RES
1 in[4] *57:A 28.3 
*END

*D_NET *18 0.000803708
*CONN
*P in[5] I
*I *58:A I *D sky130_fd_sc_hd__buf_8
*CAP
1 in[5] 0.000318704
2 *58:A 0.000318704
3 *58:A out[5] 3.34295e-05
4 *58:A *59:A 0.000132871
5 *57:A *58:A 0
*RES
1 in[5] *58:A 20.7821 
*END

*D_NET *19 0.0021298
*CONN
*P in[6] I
*I *59:A I *D sky130_fd_sc_hd__buf_8
*CAP
1 in[6] 0.000700677
2 *59:A 0.000700677
3 *59:A out[5] 0.000424234
4 *59:A out[6] 0.00017134
5 *59:A *60:A 0
6 *58:A *59:A 0.000132871
*RES
1 in[6] *59:A 30.6571 
*END

*D_NET *20 0.0022608
*CONN
*P in[7] I
*I *60:A I *D sky130_fd_sc_hd__buf_8
*CAP
1 in[7] 0.000794137
2 *60:A 0.000794137
3 *60:A out[6] 0
4 *60:A out[8] 0.000200345
5 *60:A *61:A 0.000472184
6 *59:A *60:A 0
*RES
1 in[7] *60:A 32.0857 
*END

*D_NET *21 0.00199435
*CONN
*P in[8] I
*I *61:A I *D sky130_fd_sc_hd__buf_8
*CAP
1 in[8] 0.000531153
2 *61:A 0.000531153
3 *61:A out[8] 3.51442e-05
4 *61:A out[9] 6.58195e-05
5 *61:A *62:A 0.000358895
6 *60:A *61:A 0.000472184
*RES
1 in[8] *61:A 29.8357 
*END

*D_NET *22 0.00152979
*CONN
*P in[9] I
*I *62:A I *D sky130_fd_sc_hd__buf_8
*CAP
1 in[9] 0.00058242
2 *62:A 0.00058242
3 *62:A out[9] 6.05161e-06
4 *44:A *62:A 0
5 *61:A *62:A 0.000358895
*RES
1 in[9] *62:A 27.3536 
*END

*D_NET *23 0.00207122
*CONN
*P out[0] O
*I *43:X O *D sky130_fd_sc_hd__buf_8
*CAP
1 out[0] 0.000952652
2 *43:X 0.000952652
3 out[0] out[1] 0
4 *43:A out[0] 0.000165916
*RES
1 *43:X out[0] 30.925 
*END

*D_NET *24 0.00163859
*CONN
*P out[10] O
*I *44:X O *D sky130_fd_sc_hd__buf_8
*CAP
1 out[10] 0.000722997
2 *44:X 0.000722997
3 out[10] out[11] 0
4 out[10] out[9] 0
5 *44:A out[10] 0.000192593
*RES
1 *44:X out[10] 26.4786 
*END

*D_NET *25 0.00139412
*CONN
*P out[11] O
*I *45:X O *D sky130_fd_sc_hd__buf_8
*CAP
1 out[11] 0.000464811
2 *45:X 0.000464811
3 out[11] out[12] 0.000431064
4 out[10] out[11] 0
5 *45:A out[11] 3.34295e-05
6 *46:A out[11] 0
*RES
1 *45:X out[11] 24.0321 
*END

*D_NET *26 0.00101444
*CONN
*P out[12] O
*I *46:X O *D sky130_fd_sc_hd__buf_8
*CAP
1 out[12] 0.000291685
2 *46:X 0.000291685
3 out[12] out[13] 0
4 out[12] out[14] 0
5 out[11] out[12] 0.000431064
*RES
1 *46:X out[12] 22.1214 
*END

*D_NET *27 0.00124436
*CONN
*P out[13] O
*I *47:X O *D sky130_fd_sc_hd__buf_8
*CAP
1 out[13] 0.000538987
2 *47:X 0.000538987
3 out[13] out[14] 0
4 out[12] out[13] 0
5 *47:A out[13] 0.000166389
*RES
1 *47:X out[13] 24.2107 
*END

*D_NET *28 0.00254958
*CONN
*P out[14] O
*I *48:X O *D sky130_fd_sc_hd__buf_8
*CAP
1 out[14] 0.000757816
2 *48:X 0.000757816
3 out[14] out[15] 0.00102469
4 out[12] out[14] 0
5 out[13] out[14] 0
6 *47:A out[14] 0
7 *49:A out[14] 9.25014e-06
*RES
1 *48:X out[14] 33.3179 
*END

*D_NET *29 0.00425616
*CONN
*P out[15] O
*I *49:X O *D sky130_fd_sc_hd__buf_8
*CAP
1 out[15] 0.000815838
2 *49:X 0.000815838
3 out[15] out[16] 0.000962467
4 out[15] out[17] 0
5 out[14] out[15] 0.00102469
6 *49:A out[15] 0.000409589
7 *50:A out[15] 0.000227736
*RES
1 *49:X out[15] 38.8536 
*END

*D_NET *30 0.00196898
*CONN
*P out[16] O
*I *50:X O *D sky130_fd_sc_hd__buf_8
*CAP
1 out[16] 0.000500232
2 *50:X 0.000500232
3 out[16] out[17] 0
4 out[15] out[16] 0.000962467
5 *50:A out[16] 6.05161e-06
*RES
1 *50:X out[16] 26.8179 
*END

*D_NET *31 0.00266808
*CONN
*P out[17] O
*I *51:X O *D sky130_fd_sc_hd__buf_8
*CAP
1 out[17] 0.0010538
2 *51:X 0.0010538
3 out[17] out[18] 0.000298952
4 out[15] out[17] 0
5 out[16] out[17] 0
6 *50:A out[17] 0
7 *51:A out[17] 3.27526e-05
8 *52:A out[17] 0.000228765
*RES
1 *51:X out[17] 36.1036 
*END

*D_NET *32 0.00175685
*CONN
*P out[18] O
*I *52:X O *D sky130_fd_sc_hd__buf_8
*CAP
1 out[18] 0.000517992
2 *52:X 0.000517992
3 out[18] out[19] 0
4 out[17] out[18] 0.000298952
5 *52:A out[18] 0.000128834
6 *53:A out[18] 0.000293074
*RES
1 *52:X out[18] 27.2821 
*END

*D_NET *33 0.00102487
*CONN
*P out[19] O
*I *53:X O *D sky130_fd_sc_hd__buf_8
*CAP
1 out[19] 0.000399626
2 *53:X 0.000399626
3 out[18] out[19] 0
4 *53:A out[19] 0.000225616
*RES
1 *53:X out[19] 21.0857 
*END

*D_NET *34 0.00212052
*CONN
*P out[1] O
*I *54:X O *D sky130_fd_sc_hd__buf_8
*CAP
1 out[1] 0.00061137
2 *54:X 0.00061137
3 out[1] out[2] 0.000445452
4 out[0] out[1] 0
5 *43:A out[1] 0
6 *54:A out[1] 3.34295e-05
7 *55:A out[1] 0.000418899
*RES
1 *54:X out[1] 29.55 
*END

*D_NET *35 0.00172696
*CONN
*P out[2] O
*I *55:X O *D sky130_fd_sc_hd__buf_8
*CAP
1 out[2] 0.000616625
2 *55:X 0.000616625
3 out[2] out[3] 4.82581e-05
4 out[1] out[2] 0.000445452
5 *55:A out[2] 0
*RES
1 *55:X out[2] 27.5321 
*END

*D_NET *36 0.00246675
*CONN
*P out[3] O
*I *56:X O *D sky130_fd_sc_hd__buf_8
*CAP
1 out[3] 0.000953137
2 *56:X 0.000953137
3 out[3] out[4] 0.000137004
4 out[3] out[5] 0
5 out[2] out[3] 4.82581e-05
6 *55:A out[3] 0
7 *56:A out[3] 9.25014e-06
8 *57:A out[3] 0.000365967
*RES
1 *56:X out[3] 34.1571 
*END

*D_NET *37 0.000890413
*CONN
*P out[4] O
*I *57:X O *D sky130_fd_sc_hd__buf_8
*CAP
1 out[4] 0.000376705
2 *57:X 0.000376705
3 out[4] out[5] 0
4 out[3] out[4] 0.000137004
*RES
1 *57:X out[4] 21.9607 
*END

*D_NET *38 0.00197284
*CONN
*P out[5] O
*I *58:X O *D sky130_fd_sc_hd__buf_8
*CAP
1 out[5] 0.000685938
2 *58:X 0.000685938
3 out[5] out[6] 0.000143302
4 out[3] out[5] 0
5 out[4] out[5] 0
6 *58:A out[5] 3.34295e-05
7 *59:A out[5] 0.000424234
*RES
1 *58:X out[5] 29.9607 
*END

*D_NET *39 0.00119385
*CONN
*P out[6] O
*I *59:X O *D sky130_fd_sc_hd__buf_8
*CAP
1 out[6] 0.000439606
2 *59:X 0.000439606
3 out[6] out[7] 0
4 out[6] out[8] 0
5 out[5] out[6] 0.000143302
6 *59:A out[6] 0.00017134
7 *60:A out[6] 0
*RES
1 *59:X out[6] 22.8357 
*END

*D_NET *40 0.000709416
*CONN
*P out[7] O
*I *60:X O *D sky130_fd_sc_hd__buf_8
*CAP
1 out[7] 0.000319219
2 *60:X 0.000319219
3 out[7] out[8] 7.09769e-05
4 out[6] out[7] 0
*RES
1 *60:X out[7] 19.4071 
*END

*D_NET *41 0.000799047
*CONN
*P out[8] O
*I *61:X O *D sky130_fd_sc_hd__buf_8
*CAP
1 out[8] 0.00024629
2 *61:X 0.00024629
3 out[8] out[9] 0
4 out[6] out[8] 0
5 out[7] out[8] 7.09769e-05
6 *60:A out[8] 0.000200345
7 *61:A out[8] 3.51442e-05
*RES
1 *61:X out[8] 19.8357 
*END

*D_NET *42 0.00100993
*CONN
*P out[9] O
*I *62:X O *D sky130_fd_sc_hd__buf_8
*CAP
1 out[9] 0.00046903
2 *62:X 0.00046903
3 out[10] out[9] 0
4 out[8] out[9] 0
5 *61:A out[9] 6.58195e-05
6 *62:A out[9] 6.05161e-06
*RES
1 *62:X out[9] 22.6214 
*END
