*SPEF "ieee 1481-1999"
*DESIGN "caravel_clocking"
*DATE "11:11:11 Fri 11 11, 1111"
*VENDOR "OpenRCX"
*PROGRAM "Parallel Extraction"
*VERSION "1.0"
*DESIGN_FLOW "NAME_SCOPE LOCAL" "PIN_CAP NONE"
*DIVIDER /
*DELIMITER :
*BUS_DELIMITER []
*T_UNIT 1 NS
*C_UNIT 1 PF
*R_UNIT 1 OHM
*L_UNIT 1 HENRY

*NAME_MAP
*3 core_clk
*4 ext_clk
*5 ext_clk_sel
*6 ext_reset
*7 pll_clk
*8 pll_clk90
*9 resetb
*10 resetb_sync
*11 sel2[0]
*12 sel2[1]
*13 sel2[2]
*14 sel[0]
*15 sel[1]
*16 sel[2]
*17 user_clk
*18 _000_
*19 _001_
*20 _002_
*21 _003_
*22 _004_
*23 _005_
*24 _006_
*25 _007_
*26 _008_
*27 _009_
*28 _010_
*29 _011_
*30 _012_
*31 _013_
*32 _014_
*33 _015_
*34 _016_
*35 _017_
*36 _018_
*37 _019_
*38 _020_
*39 _021_
*40 _022_
*41 _023_
*42 _024_
*43 _025_
*44 _026_
*45 _027_
*46 _028_
*47 _029_
*48 _030_
*49 _031_
*50 _032_
*51 _033_
*52 _034_
*53 _035_
*54 _036_
*55 _037_
*56 _038_
*57 _039_
*58 _040_
*59 _041_
*60 _042_
*61 _043_
*62 _044_
*63 _045_
*64 _046_
*65 _047_
*66 _048_
*67 _049_
*68 _050_
*69 _051_
*70 _052_
*71 _053_
*72 _054_
*73 _055_
*74 _056_
*75 _057_
*76 _058_
*77 _059_
*78 _060_
*79 _061_
*80 _062_
*81 _063_
*82 _064_
*83 _065_
*84 _066_
*85 _067_
*86 _068_
*87 _069_
*88 _070_
*89 _071_
*90 _072_
*91 _073_
*92 _074_
*93 _075_
*94 _076_
*95 _077_
*96 _078_
*97 _088_
*98 _089_
*99 _090_
*100 _091_
*101 _092_
*102 _093_
*103 _094_
*104 _095_
*105 _096_
*106 _097_
*107 _098_
*108 _099_
*109 _100_
*110 _101_
*111 _102_
*112 _103_
*113 _104_
*114 _105_
*115 _106_
*116 _107_
*117 _108_
*118 _109_
*119 _110_
*120 _111_
*121 _112_
*122 _113_
*123 _114_
*124 _115_
*125 _116_
*126 _117_
*127 _118_
*128 _119_
*129 _120_
*130 _121_
*131 _122_
*132 _123_
*133 _124_
*134 _125_
*135 _126_
*136 _127_
*137 _128_
*138 _129_
*139 _130_
*140 _131_
*141 _132_
*142 _133_
*143 _134_
*144 _135_
*145 _136_
*146 _137_
*147 _138_
*148 _139_
*149 _140_
*150 _141_
*151 _142_
*152 _143_
*153 _144_
*154 _145_
*155 _146_
*156 _147_
*157 _148_
*158 _149_
*159 _150_
*160 _151_
*161 _152_
*162 _153_
*163 _154_
*164 _155_
*165 _156_
*166 _157_
*167 _158_
*168 _159_
*169 _160_
*170 _161_
*171 _162_
*172 _163_
*173 _164_
*174 _165_
*175 _166_
*176 _167_
*177 _168_
*178 _169_
*179 _170_
*180 _171_
*181 _172_
*182 _173_
*183 _174_
*184 _175_
*185 _176_
*186 _177_
*187 _178_
*188 _179_
*189 _180_
*190 _181_
*191 _182_
*192 _183_
*193 _184_
*194 _185_
*195 _186_
*196 _187_
*197 _188_
*198 _189_
*199 _190_
*200 _191_
*201 _192_
*202 _193_
*203 _194_
*204 _195_
*205 _196_
*206 _197_
*207 _198_
*208 _199_
*209 _200_
*210 _201_
*211 _202_
*212 _203_
*213 _204_
*214 clknet_0__037_
*215 clknet_0_divider\.out
*216 clknet_0_divider2\.out
*217 clknet_0_ext_clk
*218 clknet_0_net10
*219 clknet_0_pll_clk
*220 clknet_0_pll_clk90
*221 clknet_1_0__leaf__037_
*222 clknet_1_0__leaf_divider\.out
*223 clknet_1_0__leaf_divider2\.out
*224 clknet_1_0__leaf_ext_clk
*225 clknet_1_0__leaf_pll_clk
*226 clknet_1_0__leaf_pll_clk90
*227 clknet_1_1__leaf__037_
*228 clknet_1_1__leaf_divider\.out
*229 clknet_1_1__leaf_divider2\.out
*230 clknet_1_1__leaf_ext_clk
*231 clknet_1_1__leaf_net10
*232 clknet_1_1__leaf_pll_clk
*233 clknet_1_1__leaf_pll_clk90
*234 divider\.even_0\.N\[0\]
*235 divider\.even_0\.N\[1\]
*236 divider\.even_0\.N\[2\]
*237 divider\.even_0\.counter\[0\]
*238 divider\.even_0\.counter\[1\]
*239 divider\.even_0\.counter\[2\]
*240 divider\.even_0\.out_counter
*241 divider\.odd_0\.counter2\[0\]
*242 divider\.odd_0\.counter2\[1\]
*243 divider\.odd_0\.counter2\[2\]
*244 divider\.odd_0\.counter\[0\]
*245 divider\.odd_0\.counter\[1\]
*246 divider\.odd_0\.counter\[2\]
*247 divider\.odd_0\.initial_begin\[0\]
*248 divider\.odd_0\.initial_begin\[1\]
*249 divider\.odd_0\.initial_begin\[2\]
*250 divider\.odd_0\.old_N\[0\]
*251 divider\.odd_0\.old_N\[1\]
*252 divider\.odd_0\.old_N\[2\]
*253 divider\.odd_0\.out_counter
*254 divider\.odd_0\.out_counter2
*255 divider\.odd_0\.rst_pulse
*256 divider\.out
*257 divider\.syncNp\[0\]
*258 divider\.syncNp\[1\]
*259 divider\.syncNp\[2\]
*260 divider2\.even_0\.N\[0\]
*261 divider2\.even_0\.N\[1\]
*262 divider2\.even_0\.N\[2\]
*263 divider2\.even_0\.counter\[0\]
*264 divider2\.even_0\.counter\[1\]
*265 divider2\.even_0\.counter\[2\]
*266 divider2\.even_0\.out_counter
*267 divider2\.odd_0\.counter2\[0\]
*268 divider2\.odd_0\.counter2\[1\]
*269 divider2\.odd_0\.counter2\[2\]
*270 divider2\.odd_0\.counter\[0\]
*271 divider2\.odd_0\.counter\[1\]
*272 divider2\.odd_0\.counter\[2\]
*273 divider2\.odd_0\.initial_begin\[0\]
*274 divider2\.odd_0\.initial_begin\[1\]
*275 divider2\.odd_0\.initial_begin\[2\]
*276 divider2\.odd_0\.old_N\[0\]
*277 divider2\.odd_0\.old_N\[1\]
*278 divider2\.odd_0\.old_N\[2\]
*279 divider2\.odd_0\.out_counter
*280 divider2\.odd_0\.out_counter2
*281 divider2\.odd_0\.rst_pulse
*282 divider2\.out
*283 divider2\.syncNp\[0\]
*284 divider2\.syncNp\[1\]
*285 divider2\.syncNp\[2\]
*286 ext_clk_syncd
*287 ext_clk_syncd_pre
*288 net1
*289 net10
*290 net11
*291 net13
*292 net14
*293 net15
*294 net16
*295 net17
*296 net18
*297 net19
*298 net2
*299 net20
*300 net21
*301 net22
*302 net23
*303 net24
*304 net25
*305 net26
*306 net27
*307 net28
*308 net29
*309 net3
*310 net30
*311 net31
*312 net32
*313 net33
*314 net34
*315 net35
*316 net36
*317 net37
*318 net38
*319 net39
*320 net4
*321 net5
*322 net6
*323 net7
*324 net8
*325 net9
*326 pll_clk_sel
*327 reset_delay\[0\]
*328 reset_delay\[1\]
*329 reset_delay\[2\]
*330 use_pll_first
*331 use_pll_second
*332 user_clk_buffered
*333 ANTENNA__233__A1
*334 ANTENNA__234__A1
*335 ANTENNA__234__S
*336 ANTENNA__235__A1
*337 ANTENNA__236__A1
*338 ANTENNA__236__S
*339 ANTENNA__237__A1
*340 ANTENNA__238__A1
*341 ANTENNA__240__S
*342 ANTENNA__241__A1
*343 ANTENNA__242__A1
*344 ANTENNA__242__S
*345 ANTENNA__243__A1
*346 ANTENNA__244__A1
*347 ANTENNA__245__A0
*348 ANTENNA__246__A0
*349 ANTENNA__275__A
*350 ANTENNA__275__B
*351 ANTENNA__276__A1
*352 ANTENNA__276__B1
*353 ANTENNA__277__A1
*354 ANTENNA__277__A2
*355 ANTENNA__277__B1
*356 ANTENNA__280__A1
*357 ANTENNA__280__A2
*358 ANTENNA__280__B1
*359 ANTENNA__281__A2
*360 ANTENNA__283__A1
*361 ANTENNA__306__B
*362 ANTENNA__313__A_N
*363 ANTENNA__316__A2
*364 ANTENNA__333__A
*365 ANTENNA__333__B
*366 ANTENNA__335__A
*367 ANTENNA__335__B
*368 ANTENNA__335__C
*369 ANTENNA__336__A1
*370 ANTENNA__336__A2
*371 ANTENNA__336__B1
*372 ANTENNA__351__B1
*373 ANTENNA__381__A1
*374 ANTENNA__387__A_N
*375 ANTENNA__388__A
*376 ANTENNA__390__A1
*377 ANTENNA__390__A2
*378 ANTENNA__397__A1
*379 ANTENNA__397__A2
*380 ANTENNA__398__A1
*381 ANTENNA__398__A3
*382 ANTENNA__399__A1
*383 ANTENNA__399__A2
*384 ANTENNA__400__A1
*385 ANTENNA__400__A3
*386 ANTENNA__401__A2
*387 ANTENNA__402__A1
*388 ANTENNA__402__A3
*389 ANTENNA__408__A
*390 ANTENNA__409__A1
*391 ANTENNA__417__SET_B
*392 ANTENNA__421__RESET_B
*393 ANTENNA__422__SET_B
*394 ANTENNA__437__SET_B
*395 ANTENNA__438__RESET_B
*396 ANTENNA__450__D
*397 ANTENNA__452__SET_B
*398 ANTENNA__453__RESET_B
*399 ANTENNA__457__SET_B
*400 ANTENNA__461__RESET_B
*401 ANTENNA__463__RESET_B
*402 ANTENNA__465__SET_B
*403 ANTENNA__466__RESET_B
*404 ANTENNA__467__RESET_B
*405 ANTENNA__468__RESET_B
*406 ANTENNA__469__SET_B
*407 ANTENNA__470__RESET_B
*408 ANTENNA__471__RESET_B
*409 ANTENNA__472__SET_B
*410 ANTENNA__473__RESET_B
*411 ANTENNA_clkbuf_0_ext_clk_A
*412 ANTENNA_clkbuf_0_pll_clk90_A
*413 ANTENNA_clkbuf_0_pll_clk_A
*414 ANTENNA_fanout21_A
*415 ANTENNA_fanout27_A
*416 ANTENNA_fanout28_A
*417 ANTENNA_input1_A
*418 ANTENNA_input2_A
*419 ANTENNA_input3_A
*420 ANTENNA_input4_A
*421 ANTENNA_input5_A
*422 ANTENNA_input6_A
*423 ANTENNA_input7_A
*424 ANTENNA_input8_A
*425 ANTENNA_input9_A
*426 FILLER_0_11
*427 FILLER_0_110
*428 FILLER_0_116
*429 FILLER_0_118
*430 FILLER_0_126
*431 FILLER_0_14
*432 FILLER_0_144
*433 FILLER_0_179
*434 FILLER_0_185
*435 FILLER_0_196
*436 FILLER_0_27
*437 FILLER_0_3
*438 FILLER_0_40
*439 FILLER_0_53
*440 FILLER_0_66
*441 FILLER_0_70
*442 FILLER_0_88
*443 FILLER_0_96
*444 FILLER_10_148
*445 FILLER_10_199
*446 FILLER_10_35
*447 FILLER_10_55
*448 FILLER_10_70
*449 FILLER_11_129
*450 FILLER_11_199
*451 FILLER_11_3
*452 FILLER_11_49
*453 FILLER_11_75
*454 FILLER_11_79
*455 FILLER_12_138
*456 FILLER_12_196
*457 FILLER_12_54
*458 FILLER_13_103
*459 FILLER_13_125
*460 FILLER_13_195
*461 FILLER_13_199
*462 FILLER_13_79
*463 FILLER_14_142
*464 FILLER_15_199
*465 FILLER_15_3
*466 FILLER_15_75
*467 FILLER_16_120
*468 FILLER_16_142
*469 FILLER_16_44
*470 FILLER_17_199
*471 FILLER_17_53
*472 FILLER_18_116
*473 FILLER_18_155
*474 FILLER_18_168
*475 FILLER_18_199
*476 FILLER_18_40
*477 FILLER_18_53
*478 FILLER_18_88
*479 FILLER_18_92
*480 FILLER_1_124
*481 FILLER_1_135
*482 FILLER_1_15
*483 FILLER_1_157
*484 FILLER_1_185
*485 FILLER_1_23
*486 FILLER_1_27
*487 FILLER_1_3
*488 FILLER_1_50
*489 FILLER_1_56
*490 FILLER_1_69
*491 FILLER_1_77
*492 FILLER_1_83
*493 FILLER_1_95
*494 FILLER_1_99
*495 FILLER_2_11
*496 FILLER_2_133
*497 FILLER_2_14
*498 FILLER_2_196
*499 FILLER_2_26
*500 FILLER_2_3
*501 FILLER_2_35
*502 FILLER_2_40
*503 FILLER_2_90
*504 FILLER_2_92
*505 FILLER_3_103
*506 FILLER_3_125
*507 FILLER_3_15
*508 FILLER_3_155
*509 FILLER_3_159
*510 FILLER_3_199
*511 FILLER_3_24
*512 FILLER_3_27
*513 FILLER_3_3
*514 FILLER_3_45
*515 FILLER_3_56
*516 FILLER_4_11
*517 FILLER_4_120
*518 FILLER_4_14
*519 FILLER_4_142
*520 FILLER_4_196
*521 FILLER_4_3
*522 FILLER_4_92
*523 FILLER_5_15
*524 FILLER_5_175
*525 FILLER_5_3
*526 FILLER_5_53
*527 FILLER_5_88
*528 FILLER_6_11
*529 FILLER_6_116
*530 FILLER_6_121
*531 FILLER_6_14
*532 FILLER_6_18
*533 FILLER_6_3
*534 FILLER_6_40
*535 FILLER_7_15
*536 FILLER_7_181
*537 FILLER_7_183
*538 FILLER_7_23
*539 FILLER_7_27
*540 FILLER_7_3
*541 FILLER_8_11
*542 FILLER_8_168
*543 FILLER_8_3
*544 FILLER_8_34
*545 FILLER_8_64
*546 FILLER_8_66
*547 FILLER_9_103
*548 FILLER_9_155
*549 FILLER_9_199
*550 FILLER_9_29
*551 FILLER_9_3
*552 FILLER_9_47
*553 FILLER_9_79
*554 PHY_0
*555 PHY_1
*556 PHY_10
*557 PHY_11
*558 PHY_12
*559 PHY_13
*560 PHY_14
*561 PHY_15
*562 PHY_16
*563 PHY_17
*564 PHY_18
*565 PHY_19
*566 PHY_2
*567 PHY_20
*568 PHY_21
*569 PHY_22
*570 PHY_23
*571 PHY_24
*572 PHY_25
*573 PHY_26
*574 PHY_27
*575 PHY_28
*576 PHY_29
*577 PHY_3
*578 PHY_30
*579 PHY_31
*580 PHY_32
*581 PHY_33
*582 PHY_34
*583 PHY_35
*584 PHY_36
*585 PHY_37
*586 PHY_4
*587 PHY_5
*588 PHY_6
*589 PHY_7
*590 PHY_8
*591 PHY_9
*592 TAP_100
*593 TAP_101
*594 TAP_102
*595 TAP_103
*596 TAP_104
*597 TAP_105
*598 TAP_106
*599 TAP_107
*600 TAP_108
*601 TAP_109
*602 TAP_110
*603 TAP_111
*604 TAP_112
*605 TAP_113
*606 TAP_114
*607 TAP_115
*608 TAP_116
*609 TAP_117
*610 TAP_118
*611 TAP_119
*612 TAP_120
*613 TAP_121
*614 TAP_122
*615 TAP_123
*616 TAP_124
*617 TAP_125
*618 TAP_126
*619 TAP_127
*620 TAP_128
*621 TAP_129
*622 TAP_130
*623 TAP_131
*624 TAP_132
*625 TAP_133
*626 TAP_134
*627 TAP_135
*628 TAP_136
*629 TAP_137
*630 TAP_138
*631 TAP_139
*632 TAP_140
*633 TAP_141
*634 TAP_142
*635 TAP_143
*636 TAP_144
*637 TAP_145
*638 TAP_146
*639 TAP_147
*640 TAP_148
*641 TAP_149
*642 TAP_150
*643 TAP_151
*644 TAP_152
*645 TAP_153
*646 TAP_154
*647 TAP_155
*648 TAP_156
*649 TAP_157
*650 TAP_158
*651 TAP_159
*652 TAP_160
*653 TAP_161
*654 TAP_162
*655 TAP_163
*656 TAP_164
*657 TAP_165
*658 TAP_166
*659 TAP_167
*660 TAP_168
*661 TAP_169
*662 TAP_170
*663 TAP_171
*664 TAP_172
*665 TAP_173
*666 TAP_174
*667 TAP_175
*668 TAP_176
*669 TAP_177
*670 TAP_178
*671 TAP_179
*672 TAP_180
*673 TAP_181
*674 TAP_182
*675 TAP_183
*676 TAP_184
*677 TAP_185
*678 TAP_186
*679 TAP_187
*680 TAP_188
*681 TAP_189
*682 TAP_190
*683 TAP_191
*684 TAP_192
*685 TAP_193
*686 TAP_194
*687 TAP_38
*688 TAP_39
*689 TAP_40
*690 TAP_41
*691 TAP_42
*692 TAP_43
*693 TAP_44
*694 TAP_45
*695 TAP_46
*696 TAP_47
*697 TAP_48
*698 TAP_49
*699 TAP_50
*700 TAP_51
*701 TAP_52
*702 TAP_53
*703 TAP_54
*704 TAP_55
*705 TAP_56
*706 TAP_57
*707 TAP_58
*708 TAP_59
*709 TAP_60
*710 TAP_61
*711 TAP_62
*712 TAP_63
*713 TAP_64
*714 TAP_65
*715 TAP_66
*716 TAP_67
*717 TAP_68
*718 TAP_69
*719 TAP_70
*720 TAP_71
*721 TAP_72
*722 TAP_73
*723 TAP_74
*724 TAP_75
*725 TAP_76
*726 TAP_77
*727 TAP_78
*728 TAP_79
*729 TAP_80
*730 TAP_81
*731 TAP_82
*732 TAP_83
*733 TAP_84
*734 TAP_85
*735 TAP_86
*736 TAP_87
*737 TAP_88
*738 TAP_89
*739 TAP_90
*740 TAP_91
*741 TAP_92
*742 TAP_93
*743 TAP_94
*744 TAP_95
*745 TAP_96
*746 TAP_97
*747 TAP_98
*748 TAP_99
*749 _206_
*750 _207_
*751 _208_
*752 _209_
*753 _210_
*754 _211_
*755 _212_
*756 _213_
*757 _214_
*758 _215_
*759 _216_
*760 _217_
*761 _218_
*762 _219_
*763 _220_
*764 _221_
*765 _222_
*766 _223_
*767 _224_
*768 _225_
*769 _226_
*770 _227_
*771 _228_
*772 _229_
*773 _230_
*774 _231_
*775 _232_
*776 _233_
*777 _234_
*778 _235_
*779 _236_
*780 _237_
*781 _238_
*782 _239_
*783 _240_
*784 _241_
*785 _242_
*786 _243_
*787 _244_
*788 _245_
*789 _246_
*790 _247_
*791 _248_
*792 _249_
*793 _250_
*794 _251_
*795 _252_
*796 _253_
*797 _254_
*798 _255_
*799 _256_
*800 _257_
*801 _258_
*802 _259_
*803 _260_
*804 _261_
*805 _262_
*806 _263_
*807 _264_
*808 _265_
*809 _266__7
*810 _267_
*811 _268__4
*812 _269_
*813 _270_
*814 _271__1
*815 _272_
*816 _273_
*817 _274_
*818 _275_
*819 _276_
*820 _277_
*821 _278_
*822 _279_
*823 _280_
*824 _281_
*825 _282_
*826 _283_
*827 _284_
*828 _285_
*829 _286_
*830 _287_
*831 _288_
*832 _289_
*833 _290_
*834 _291_
*835 _292_
*836 _293_
*837 _294_
*838 _295_
*839 _296_
*840 _297_
*841 _298_
*842 _299_
*843 _300_
*844 _301_
*845 _302_
*846 _303_
*847 _304_
*848 _305_
*849 _306_
*850 _307_
*851 _308_
*852 _309_
*853 _310_
*854 _311_
*855 _312_
*856 _313_
*857 _314_
*858 _315_
*859 _316_
*860 _317_
*861 _318_
*862 _319_
*863 _320_
*864 _321_
*865 _322_
*866 _323_
*867 _324_
*868 _325_
*869 _326_
*870 _327_
*871 _328_
*872 _329_
*873 _330_
*874 _331_
*875 _332_
*876 _333_
*877 _334_
*878 _335_
*879 _336_
*880 _337_
*881 _338_
*882 _339_
*883 _340_
*884 _341_
*885 _342_
*886 _343_
*887 _344_
*888 _345_
*889 _346_
*890 _347_
*891 _348_
*892 _349_
*893 _350_
*894 _351_
*895 _352_
*896 _353_
*897 _354_
*898 _355_
*899 _356_
*900 _357_
*901 _358_
*902 _359_
*903 _360_
*904 _361_
*905 _362_
*906 _363_
*907 _364_
*908 _365_
*909 _366_
*910 _367_
*911 _368_
*912 _369_
*913 _370_
*914 _371_
*915 _372_
*916 _373_
*917 _374_
*918 _375_
*919 _376_
*920 _377_
*921 _378_
*922 _379_
*923 _380_
*924 _381_
*925 _382_
*926 _383_
*927 _384_
*928 _385_
*929 _386_
*930 _387_
*931 _388_
*932 _389_
*933 _390_
*934 _391_
*935 _392_
*936 _393_
*937 _394_
*938 _395_
*939 _396_
*940 _397_
*941 _398_
*942 _399_
*943 _400_
*944 _401_
*945 _402_
*946 _403_
*947 _404_
*948 _405_
*949 _406_
*950 _407_
*951 _408_
*952 _409_
*953 _410_
*954 _411__8
*955 _412__9
*956 _413__5
*957 _414__6
*958 _415__2
*959 _416__3
*960 _417_
*961 _418_
*962 _419_
*963 _419__30
*964 _420_
*965 _421_
*966 _422_
*967 _423_
*968 _424_
*969 _425_
*970 _426_
*971 _427_
*972 _428_
*973 _429_
*974 _430_
*975 _431_
*976 _432_
*977 _433_
*978 _434_
*979 _435_
*980 _436_
*981 _437_
*982 _438_
*983 _439_
*984 _440_
*985 _441_
*986 _442_
*987 _443_
*988 _444_
*989 _445_
*990 _446_
*991 _447_
*992 _448_
*993 _449_
*994 _450_
*995 _451_
*996 _452_
*997 _453_
*998 _454_
*999 _455_
*1000 _456_
*1001 _457_
*1002 _458_
*1003 _459_
*1004 _460_
*1005 _461_
*1006 _462_
*1007 _463_
*1008 _464_
*1009 _465_
*1010 _466_
*1011 _467_
*1012 _468_
*1013 _469_
*1014 _470_
*1015 _471_
*1016 _472_
*1017 _473_
*1018 clkbuf_0__037_
*1019 clkbuf_0_divider\.out
*1020 clkbuf_0_divider2\.out
*1021 clkbuf_0_ext_clk
*1022 clkbuf_0_net10
*1023 clkbuf_0_pll_clk
*1024 clkbuf_0_pll_clk90
*1025 clkbuf_1_0__f__037_
*1026 clkbuf_1_0__f_divider\.out
*1027 clkbuf_1_0__f_divider2\.out
*1028 clkbuf_1_0__f_ext_clk
*1029 clkbuf_1_0__f_net10
*1030 clkbuf_1_0__f_pll_clk
*1031 clkbuf_1_0__f_pll_clk90
*1032 clkbuf_1_1__f__037_
*1033 clkbuf_1_1__f_divider\.out
*1034 clkbuf_1_1__f_divider2\.out
*1035 clkbuf_1_1__f_ext_clk
*1036 clkbuf_1_1__f_net10
*1037 clkbuf_1_1__f_pll_clk
*1038 clkbuf_1_1__f_pll_clk90
*1039 fanout13
*1040 fanout14
*1041 fanout15
*1042 fanout16
*1043 fanout17
*1044 fanout18
*1045 fanout19
*1046 fanout20
*1047 fanout21
*1048 fanout22
*1049 fanout23
*1050 fanout24
*1051 fanout25
*1052 fanout26
*1053 fanout27
*1054 fanout28
*1055 fanout29
*1056 input1
*1057 input2
*1058 input3
*1059 input4
*1060 input5
*1061 input6
*1062 input7
*1063 input8
*1064 input9
*1065 output11
*1066 user_clk_out_buffer

*PORTS
core_clk O
ext_clk I
ext_clk_sel I
ext_reset I
pll_clk I
pll_clk90 I
resetb I
resetb_sync O
sel2[0] I
sel2[1] I
sel2[2] I
sel[0] I
sel[1] I
sel[2] I
user_clk O

*D_NET *3 0.00549466
*CONN
*P core_clk O
*I *955:A I *D sky130_fd_sc_hd__inv_4
*I *1029:X O *D sky130_fd_sc_hd__clkbuf_16
*CAP
1 core_clk 0.000417733
2 *955:A 0.000149743
3 *1029:X 0.000648866
4 *3:10 0.00121634
5 core_clk *776:A0 0.000732594
6 core_clk *962:D 0.000403635
7 core_clk *291:197 7.576e-05
8 core_clk *292:122 0
9 core_clk *292:127 0
10 core_clk *293:137 0.00010724
11 core_clk *304:18 9.00084e-05
12 *955:A *1035:A 4.36243e-05
13 *955:A *1036:A 9.58632e-05
14 *955:A *218:9 9.67754e-05
15 *3:10 *776:A0 0.000146833
16 *3:10 *804:A 0.000148196
17 *3:10 *1029:A 0.000197714
18 *3:10 *291:116 9.86094e-06
19 *3:10 *291:197 6.14702e-06
20 *3:10 *292:248 1.90936e-05
21 *3:10 *300:147 0.000829026
22 *3:10 *304:32 4.60232e-06
23 *3:10 *304:51 5.50052e-05
*RES
1 *1029:X *3:10 28.2286 
2 *3:10 *955:A 16.8179 
3 *3:10 core_clk 12.3571 
*END

*D_NET *4 0.00237755
*CONN
*P ext_clk I
*I *411:DIODE I *D sky130_fd_sc_hd__diode_2
*I *1021:A I *D sky130_fd_sc_hd__clkbuf_16
*CAP
1 ext_clk 0.00045179
2 *411:DIODE 0
3 *1021:A 4.0991e-05
4 *4:5 0.000492781
5 *1021:A *336:DIODE 7.87663e-05
6 *1021:A *780:A0 8.03456e-05
7 *1021:A *267:38 2.85234e-05
8 *1021:A *269:47 5.33005e-05
9 *4:5 *334:DIODE 2.23958e-05
10 *4:5 *336:DIODE 7.89362e-05
11 *4:5 *752:A1 0.000376333
12 *4:5 *778:A0 4.22894e-05
13 *4:5 *779:A1 0.000182396
14 *4:5 *780:A0 9.19122e-05
15 *4:5 *792:A 0
16 *4:5 *828:A1 8.77666e-05
17 *4:5 *999:D 0.00012199
18 *4:5 *1028:A 3.56013e-05
19 *4:5 *301:231 1.27784e-05
20 *4:5 *307:15 9.86584e-05
*RES
1 ext_clk *4:5 11.75 
2 *4:5 *1021:A 15.3714 
3 *4:5 *411:DIODE 13.8 
*END

*D_NET *5 0.00742439
*CONN
*P ext_clk_sel I
*I *1056:A I *D sky130_fd_sc_hd__clkbuf_1
*I *417:DIODE I *D sky130_fd_sc_hd__diode_2
*CAP
1 ext_clk_sel 0.000543348
2 *1056:A 0
3 *417:DIODE 0
4 *5:25 0.00126026
5 *5:10 0.00180361
6 *5:10 *902:B 0
7 *5:10 *1050:A 5.80706e-06
8 *5:10 *152:43 2.43793e-05
9 *5:25 *767:A0 9.90431e-05
10 *5:25 *769:S 6.207e-05
11 *5:25 *846:C 0
12 *5:25 *914:B1_N 9.25014e-06
13 *5:25 *14:20 0.0015906
14 *5:25 *15:25 0
15 *5:25 *152:26 1.36251e-05
16 *5:25 *152:35 9.71197e-05
17 *5:25 *293:11 0.000270409
18 *5:25 *293:23 0.00164488
*RES
1 ext_clk_sel *5:10 9.39939 
2 *5:10 *5:25 49.1607 
3 *5:25 *417:DIODE 9.3 
4 *5:10 *1056:A 9.3 
*END

*D_NET *6 0.0170727
*CONN
*P ext_reset I
*I *1057:A I *D sky130_fd_sc_hd__clkbuf_1
*I *418:DIODE I *D sky130_fd_sc_hd__diode_2
*CAP
1 ext_reset 0.000420652
2 *1057:A 0
3 *418:DIODE 0.000195085
4 *6:43 0.00137489
5 *6:28 0.00347852
6 *6:12 0.00271936
7 *418:DIODE *870:A 0
8 *418:DIODE *14:20 5.33978e-05
9 *418:DIODE *293:28 1.02504e-05
10 *418:DIODE *303:72 0
11 *418:DIODE *303:82 0
12 *6:12 *359:DIODE 0
13 *6:12 *925:D 1.06305e-05
14 *6:12 *8:14 0.000187382
15 *6:12 *13:12 0
16 *6:12 *298:9 3.83577e-05
17 *6:28 *359:DIODE 1.95367e-05
18 *6:28 *404:DIODE 4.37079e-05
19 *6:28 *801:A 0
20 *6:28 *925:D 1.01912e-05
21 *6:28 *927:B 9.95912e-06
22 *6:28 *929:A_N 2.06178e-05
23 *6:28 *931:B 0.000431655
24 *6:28 *993:D 7.69776e-06
25 *6:28 *1010:D 2.48383e-05
26 *6:28 *1011:CLK 7.74135e-05
27 *6:28 *1012:RESET_B 0.000278113
28 *6:28 *1014:D 0.000175291
29 *6:28 *1065:A 8.56907e-05
30 *6:28 *8:14 2.11419e-05
31 *6:28 *11:17 0.000511027
32 *6:28 *13:12 0.000175108
33 *6:28 *13:29 0
34 *6:28 *145:21 0.000232741
35 *6:28 *145:276 0.000679331
36 *6:28 *145:295 0.00014542
37 *6:28 *233:70 0.000222499
38 *6:28 *277:16 1.28411e-05
39 *6:28 *291:273 0
40 *6:28 *292:24 5.45385e-05
41 *6:28 *308:159 0.000394628
42 *6:28 *308:165 9.07802e-05
43 *6:28 *308:204 8.46933e-05
44 *6:28 *325:22 7.54868e-05
45 *6:43 *914:B1_N 0
46 *6:43 *969:CLK 0
47 *6:43 *982:CLK 0.000225988
48 *6:43 *995:D 0.000120764
49 *6:43 *11:17 0.000115285
50 *6:43 *13:29 0.000720472
51 *6:43 *14:20 8.95387e-05
52 *6:43 *15:25 0.00131402
53 *6:43 *16:36 0.00187062
54 *6:43 *293:23 2.44318e-05
55 *6:43 *299:13 0.000218099
*RES
1 ext_reset *6:12 6.79252 
2 *6:12 *6:28 45.278 
3 *6:28 *6:43 49.0625 
4 *6:43 *418:DIODE 22.0679 
5 *6:12 *1057:A 13.8 
*END

*D_NET *7 0.00837431
*CONN
*P pll_clk I
*I *413:DIODE I *D sky130_fd_sc_hd__diode_2
*I *1023:A I *D sky130_fd_sc_hd__clkbuf_16
*CAP
1 pll_clk 0.0022756
2 *413:DIODE 0
3 *1023:A 9.08884e-05
4 *7:22 0.000691766
5 *7:19 0.00287648
6 *1023:A *985:D 5.34628e-05
7 *7:19 *359:DIODE 0
8 *7:19 *754:S 0
9 *7:19 *788:A1 0.000282161
10 *7:19 *859:A3 0
11 *7:19 *928:B 0
12 *7:19 *931:B 0
13 *7:19 *949:A0 3.9733e-05
14 *7:19 *1005:CLK 2.30866e-05
15 *7:19 *1014:D 0
16 *7:19 *1015:D 0.000278023
17 *7:19 *1024:A 0.000302721
18 *7:19 *1027:A 0
19 *7:19 *8:22 4.35181e-05
20 *7:19 *13:12 3.54555e-05
21 *7:19 *13:29 0.000452094
22 *7:19 *167:21 3.37033e-05
23 *7:19 *204:22 1.95771e-05
24 *7:19 *216:8 0
25 *7:19 *292:67 4.75956e-06
26 *7:19 *301:41 0.000275154
27 *7:19 *301:53 0.000137639
28 *7:19 *307:88 0
29 *7:19 *307:96 0
30 *7:22 *985:D 0.000230982
31 *7:22 *1005:CLK 0.000227509
*RES
1 pll_clk *7:19 46.7857 
2 *7:19 *7:22 12.8393 
3 *7:22 *1023:A 10.675 
4 *7:22 *413:DIODE 9.3 
*END

*D_NET *8 0.0100011
*CONN
*P pll_clk90 I
*I *1024:A I *D sky130_fd_sc_hd__clkbuf_16
*I *412:DIODE I *D sky130_fd_sc_hd__diode_2
*CAP
1 pll_clk90 0.0019512
2 *1024:A 0.000616652
3 *412:DIODE 2.76738e-05
4 *8:22 0.00146537
5 *8:14 0.00277224
6 *1024:A *940:A2 7.58841e-05
7 *1024:A *1005:CLK 0.000370794
8 *1024:A *207:13 3.24049e-05
9 *1024:A *301:68 8.37905e-05
10 *1024:A *307:88 2.00904e-05
11 *8:14 *789:S 7.28272e-06
12 *8:14 *925:A_N 2.6632e-05
13 *8:14 *925:D 4.70987e-05
14 *8:14 *951:D 0.000175908
15 *8:14 *1010:CLK 6.23129e-05
16 *8:14 *1011:D 0.000278162
17 *8:14 *1012:RESET_B 6.34998e-05
18 *8:14 *12:11 0
19 *8:14 *12:32 4.73684e-05
20 *8:14 *261:32 0.000156788
21 *8:14 *262:5 7.19508e-05
22 *8:14 *262:20 0.000182837
23 *8:14 *265:7 1.14085e-05
24 *8:14 *265:21 0.000153047
25 *8:14 *291:54 3.53421e-05
26 *8:14 *291:260 4.51292e-05
27 *8:14 *293:129 0
28 *8:14 *294:12 2.29985e-05
29 *8:14 *294:67 0.000249346
30 *8:14 *308:159 7.01663e-05
31 *8:14 *308:165 4.64044e-05
32 *8:22 *1010:CLK 0
33 *8:22 *1017:D 0.000138871
34 *8:22 *301:41 9.49333e-05
35 *8:22 *301:53 4.27293e-05
36 *6:12 *8:14 0.000187382
37 *6:28 *8:14 2.11419e-05
38 *7:19 *1024:A 0.000302721
39 *7:19 *8:22 4.35181e-05
*RES
1 pll_clk90 *8:14 49.5 
2 *8:14 *8:22 11.1607 
3 *8:22 *412:DIODE 9.83571 
4 *8:22 *1024:A 29.8893 
*END

*D_NET *9 0.00632151
*CONN
*P resetb I
*I *1058:A I *D sky130_fd_sc_hd__clkbuf_1
*I *419:DIODE I *D sky130_fd_sc_hd__diode_2
*CAP
1 resetb 0.000598234
2 *1058:A 3.59657e-05
3 *419:DIODE 0.00105214
4 *9:13 0.00168634
5 *419:DIODE *774:A0 0.000139637
6 *419:DIODE *781:A1 0.000333828
7 *419:DIODE *802:A 0.000273636
8 *419:DIODE *803:A 9.58632e-05
9 *419:DIODE *816:A1 9.41642e-05
10 *419:DIODE *923:A1 0
11 *419:DIODE *934:A_N 0
12 *419:DIODE *938:A0 1.84431e-05
13 *419:DIODE *992:CLK 0
14 *419:DIODE *992:D 0.000120412
15 *419:DIODE *998:RESET_B 0.000240136
16 *419:DIODE *1002:D 0.000258945
17 *419:DIODE *1004:RESET_B 0.000141445
18 *419:DIODE *43:16 0
19 *419:DIODE *82:18 6.47346e-05
20 *419:DIODE *274:11 7.69776e-06
21 *419:DIODE *291:141 1.02433e-05
22 *419:DIODE *291:157 3.06879e-05
23 *419:DIODE *292:193 0
24 *419:DIODE *304:18 0
25 *419:DIODE *305:12 0.000138116
26 *419:DIODE *305:14 0.000368261
27 *419:DIODE *305:27 7.69129e-05
28 *419:DIODE *309:9 9.87489e-05
29 *1058:A *752:A1 1.58163e-05
30 *9:13 *752:S 0
31 *9:13 *55:17 6.27272e-06
32 *9:13 *85:11 0.000247457
33 *9:13 *305:12 0.000167367
*RES
1 resetb *9:13 9.91071 
2 *9:13 *419:DIODE 48.2821 
3 *9:13 *1058:A 14.3357 
*END

*D_NET *10 0.00703193
*CONN
*P resetb_sync O
*I *1065:X O *D sky130_fd_sc_hd__buf_12
*CAP
1 resetb_sync 0.000819022
2 *1065:X 0.00147135
3 *10:23 0.00229037
4 resetb_sync *824:A1 0
5 resetb_sync *824:B1 0.000186164
6 resetb_sync *960:CLK 3.75959e-05
7 resetb_sync *1016:D 7.49346e-05
8 resetb_sync *1032:A 0
9 resetb_sync *1066:A 0.000137114
10 resetb_sync *161:21 1.00887e-05
11 resetb_sync *214:23 0
12 *10:23 *349:DIODE 0.000282962
13 *10:23 *857:A 3.05213e-05
14 *10:23 *857:B 0.000209379
15 *10:23 *859:A3 1.93106e-05
16 *10:23 *951:A 5.50052e-05
17 *10:23 *1042:A 0.000267731
18 *10:23 *229:8 0.00013866
19 *10:23 *263:20 0.000116032
20 *10:23 *263:25 7.75057e-05
21 *10:23 *263:52 2.41865e-05
22 *10:23 *279:26 0.000567835
23 *10:23 *293:114 0.000216168
*RES
1 *1065:X *10:23 46.7464 
2 *10:23 resetb_sync 16.3214 
*END

*D_NET *11 0.0105504
*CONN
*P sel2[0] I
*I *1059:A I *D sky130_fd_sc_hd__clkbuf_1
*I *420:DIODE I *D sky130_fd_sc_hd__diode_2
*CAP
1 sel2[0] 0.000311255
2 *1059:A 0.000111254
3 *420:DIODE 0
4 *11:17 0.00289875
5 *11:7 0.00332126
6 *1059:A *952:B1 7.91981e-05
7 *1059:A *12:11 0
8 *1059:A *265:21 4.03432e-05
9 *11:17 *407:DIODE 4.15526e-05
10 *11:17 *766:A1 2.59355e-05
11 *11:17 *766:S 0.00011613
12 *11:17 *767:A1 0.000649217
13 *11:17 *913:A2 0.000167339
14 *11:17 *952:B1 9.46262e-05
15 *11:17 *993:D 0
16 *11:17 *994:D 0
17 *11:17 *995:CLK 7.92733e-05
18 *11:17 *995:D 0.000117729
19 *11:17 *1010:D 0.000112747
20 *11:17 *12:11 0
21 *11:17 *15:25 0.000256493
22 *11:17 *69:14 0.000112995
23 *11:17 *145:21 1.20192e-05
24 *11:17 *233:72 9.39991e-05
25 *11:17 *235:57 4.68627e-05
26 *11:17 *236:12 0
27 *11:17 *244:36 0.000141341
28 *11:17 *245:15 9.60939e-05
29 *11:17 *291:44 3.82109e-05
30 *11:17 *293:68 0.000264703
31 *11:17 *293:89 0.000194894
32 *11:17 *294:20 2.23032e-05
33 *11:17 *295:25 3.23181e-05
34 *11:17 *308:159 3.54571e-05
35 *11:17 *326:23 0.000409795
36 *6:28 *11:17 0.000511027
37 *6:43 *11:17 0.000115285
*RES
1 sel2[0] *11:7 4.11813 
2 *11:7 *11:17 49.6789 
3 *11:17 *420:DIODE 9.3 
4 *11:7 *1059:A 16.5054 
*END

*D_NET *12 0.00944058
*CONN
*P sel2[1] I
*I *1060:A I *D sky130_fd_sc_hd__clkbuf_1
*I *421:DIODE I *D sky130_fd_sc_hd__diode_2
*CAP
1 sel2[1] 0.000766577
2 *1060:A 0
3 *421:DIODE 0.000192644
4 *12:32 0.00188685
5 *12:11 0.00246078
6 *421:DIODE *768:A0 0.00014285
7 *421:DIODE *769:S 0.000227532
8 *421:DIODE *13:29 5.65955e-05
9 *421:DIODE *49:24 6.41153e-05
10 *12:11 *265:21 0
11 *12:11 *293:89 6.05161e-06
12 *12:32 *767:A0 9.87417e-05
13 *12:32 *767:A1 1.77525e-05
14 *12:32 *768:A0 3.75052e-05
15 *12:32 *900:A_N 0.000475846
16 *12:32 *917:A1 9.02649e-06
17 *12:32 *946:D1 0.000103712
18 *12:32 *953:A 3.52966e-05
19 *12:32 *995:CLK 0.000344634
20 *12:32 *1010:RESET_B 0.00019776
21 *12:32 *1011:D 2.19809e-05
22 *12:32 *16:36 0.000606489
23 *12:32 *233:70 9.25014e-06
24 *12:32 *233:72 0.000514521
25 *12:32 *251:20 0.000387568
26 *12:32 *262:20 4.43046e-05
27 *12:32 *262:22 3.95853e-05
28 *12:32 *264:7 5.33005e-05
29 *12:32 *292:18 1.21637e-05
30 *12:32 *292:286 0.00032152
31 *12:32 *293:89 4.55244e-05
32 *12:32 *303:40 0.000118574
33 *12:32 *303:43 9.41642e-05
34 *1059:A *12:11 0
35 *8:14 *12:11 0
36 *8:14 *12:32 4.73684e-05
37 *11:17 *12:11 0
*RES
1 sel2[1] *12:11 19.9274 
2 *12:11 *12:32 49.1786 
3 *12:32 *421:DIODE 18.4429 
4 *12:11 *1060:A 9.3 
*END

*D_NET *13 0.0117402
*CONN
*P sel2[2] I
*I *1061:A I *D sky130_fd_sc_hd__clkbuf_1
*I *422:DIODE I *D sky130_fd_sc_hd__diode_2
*CAP
1 sel2[2] 0.00186736
2 *1061:A 2.99702e-05
3 *422:DIODE 0
4 *13:29 0.00178297
5 *13:12 0.0036803
6 *1061:A *996:CLK 0.000139637
7 *1061:A *321:17 0.000139637
8 *13:12 *788:A1 0.000111388
9 *13:12 *292:51 0.000174097
10 *13:12 *292:67 4.85511e-06
11 *13:29 *914:B1_N 0
12 *13:29 *931:A 1.21576e-05
13 *13:29 *931:B 0
14 *13:29 *931:C 0.000552415
15 *13:29 *969:D 0.000155461
16 *13:29 *993:D 0
17 *13:29 *1015:D 0.000279602
18 *13:29 *1046:A 0.00032713
19 *13:29 *49:24 4.86382e-06
20 *13:29 *245:8 0
21 *13:29 *245:15 0
22 *13:29 *278:8 0
23 *13:29 *292:24 1.89507e-06
24 *13:29 *292:40 0.000650679
25 *13:29 *292:51 0.000247622
26 *13:29 *299:8 2.09722e-05
27 *13:29 *299:13 9.18274e-05
28 *13:29 *308:117 4.22135e-06
29 *13:29 *308:130 2.14001e-05
30 *13:29 *325:22 0
31 *421:DIODE *13:29 5.65955e-05
32 *6:12 *13:12 0
33 *6:28 *13:12 0.000175108
34 *6:28 *13:29 0
35 *6:43 *13:29 0.000720472
36 *7:19 *13:12 3.54555e-05
37 *7:19 *13:29 0.000452094
*RES
1 sel2[2] *13:12 9.42139 
2 *13:12 *13:29 45.9107 
3 *13:29 *422:DIODE 9.3 
4 *13:12 *1061:A 15.1571 
*END

*D_NET *14 0.00603685
*CONN
*P sel[0] I
*I *1062:A I *D sky130_fd_sc_hd__clkbuf_1
*I *423:DIODE I *D sky130_fd_sc_hd__diode_2
*CAP
1 sel[0] 0.000619534
2 *1062:A 0
3 *423:DIODE 0
4 *14:20 0.00141581
5 *14:11 0.00203535
6 *14:11 *806:A 0
7 *14:11 *902:B 0
8 *14:11 *904:A1 0
9 *14:20 *424:DIODE 0
10 *14:20 *425:DIODE 0
11 *14:20 *806:A 2.6726e-05
12 *14:20 *16:36 3.48705e-05
13 *14:20 *293:23 0.000171023
14 *418:DIODE *14:20 5.33978e-05
15 *5:25 *14:20 0.0015906
16 *6:43 *14:20 8.95387e-05
*RES
1 sel[0] *14:11 17.4268 
2 *14:11 *14:20 48.0893 
3 *14:20 *423:DIODE 13.8 
4 *14:11 *1062:A 9.3 
*END

*D_NET *15 0.00932566
*CONN
*P sel[1] I
*I *1063:A I *D sky130_fd_sc_hd__clkbuf_1
*I *424:DIODE I *D sky130_fd_sc_hd__diode_2
*CAP
1 sel[1] 0.00039976
2 *1063:A 0
3 *424:DIODE 5.30342e-05
4 *15:25 0.00248599
5 *15:11 0.00283272
6 *424:DIODE *425:DIODE 3.69606e-05
7 *15:11 *1064:A 6.69245e-05
8 *15:11 *16:36 7.63712e-06
9 *15:11 *250:11 0.000152159
10 *15:11 *325:22 1.94945e-05
11 *15:25 *767:A1 0.000134111
12 *15:25 *903:A 5.33005e-05
13 *15:25 *914:B1_N 0.000292583
14 *15:25 *982:D 0.000126202
15 *15:25 *982:RESET_B 0.000293534
16 *15:25 *987:D 0.000109533
17 *15:25 *49:24 8.06551e-05
18 *15:25 *245:8 0.00011213
19 *15:25 *245:15 0.000175212
20 *15:25 *246:7 9.41642e-05
21 *15:25 *252:13 8.04349e-06
22 *15:25 *293:23 0.000122047
23 *15:25 *295:19 9.89524e-05
24 *5:25 *15:25 0
25 *6:43 *15:25 0.00131402
26 *11:17 *15:25 0.000256493
27 *14:20 *424:DIODE 0
*RES
1 sel[1] *15:11 14.0524 
2 *15:11 *15:25 47.6786 
3 *15:25 *424:DIODE 19.3357 