*SPEF "ieee 1481-1999"
*DESIGN "caravel_clocking"
*DATE "11:11:11 Fri 11 11, 1111"
*VENDOR "OpenRCX"
*PROGRAM "Parallel Extraction"
*VERSION "1.0"
*DESIGN_FLOW "NAME_SCOPE LOCAL" "PIN_CAP NONE"
*DIVIDER /
*DELIMITER :
*BUS_DELIMITER []
*T_UNIT 1 NS
*C_UNIT 1 PF
*R_UNIT 1 OHM
*L_UNIT 1 HENRY

*NAME_MAP
*3 core_clk
*4 ext_clk
*5 ext_clk_sel
*6 ext_reset
*7 pll_clk
*8 pll_clk90
*9 resetb
*10 resetb_sync
*11 sel2[0]
*12 sel2[1]
*13 sel2[2]
*14 sel[0]
*15 sel[1]
*16 sel[2]
*17 user_clk
*18 _000_
*19 _001_
*20 _002_
*21 _003_
*22 _004_
*23 _005_
*24 _006_
*25 _007_
*26 _008_
*27 _009_
*28 _010_
*29 _011_
*30 _012_
*31 _013_
*32 _014_
*33 _015_
*34 _016_
*35 _017_
*36 _018_
*37 _019_
*38 _020_
*39 _021_
*40 _022_
*41 _023_
*42 _024_
*43 _025_
*44 _026_
*45 _027_
*46 _028_
*47 _029_
*48 _030_
*49 _031_
*50 _032_
*51 _033_
*52 _034_
*53 _035_
*54 _036_
*55 _037_
*56 _038_
*57 _039_
*58 _040_
*59 _041_
*60 _042_
*61 _043_
*62 _044_
*63 _045_
*64 _046_
*65 _047_
*66 _054_
*67 _055_
*68 _056_
*69 _057_
*70 _058_
*71 _059_
*72 _060_
*73 _061_
*74 _062_
*75 _063_
*76 _064_
*77 _065_
*78 _066_
*79 _067_
*80 _068_
*81 _069_
*82 _070_
*83 _071_
*84 _072_
*85 _073_
*86 _074_
*87 _075_
*88 _076_
*89 _077_
*90 _078_
*91 _079_
*92 _080_
*93 _081_
*94 _082_
*95 _083_
*96 _084_
*97 _085_
*98 _086_
*99 _087_
*100 _088_
*101 _089_
*102 _090_
*103 _091_
*104 _092_
*105 _093_
*106 _094_
*107 _095_
*108 _096_
*109 _097_
*110 _098_
*111 _099_
*112 _100_
*113 _101_
*114 _102_
*115 _103_
*116 _104_
*117 _105_
*118 _106_
*119 _107_
*120 _108_
*121 _109_
*122 _110_
*123 _111_
*124 _112_
*125 _113_
*126 _114_
*127 _115_
*128 _116_
*129 _117_
*130 _118_
*131 _119_
*132 _120_
*133 _121_
*134 _122_
*135 _123_
*136 _124_
*137 _125_
*138 _126_
*139 _127_
*140 _128_
*141 _129_
*142 _130_
*143 _131_
*144 _132_
*145 _133_
*146 _134_
*147 _135_
*148 _136_
*149 _137_
*150 _138_
*151 _139_
*152 _140_
*153 _141_
*154 _142_
*155 _143_
*156 _144_
*157 _145_
*158 _146_
*159 _147_
*160 _148_
*161 _149_
*162 _150_
*163 _151_
*164 _152_
*165 _153_
*166 _154_
*167 _155_
*168 _156_
*169 _157_
*170 _158_
*171 _159_
*172 _160_
*173 _161_
*174 _162_
*175 _163_
*176 _164_
*177 _165_
*178 _166_
*179 _167_
*180 _168_
*181 _169_
*182 _170_
*183 _171_
*184 _172_
*185 _173_
*186 _174_
*187 _175_
*188 _176_
*189 _177_
*190 _178_
*191 _179_
*192 _180_
*193 _181_
*194 _182_
*195 _183_
*196 _184_
*197 _185_
*198 _186_
*199 _187_
*200 _188_
*201 _189_
*202 _190_
*203 _191_
*204 _192_
*205 _193_
*206 _194_
*207 _195_
*208 _196_
*209 _197_
*210 _198_
*211 _199_
*212 _200_
*213 _201_
*214 _202_
*215 clknet_0_ext_clk
*216 clknet_0_pll_clk
*217 clknet_0_pll_clk90
*218 clknet_1_0_0_ext_clk
*219 clknet_1_0_0_pll_clk
*220 clknet_1_0_0_pll_clk90
*221 clknet_1_1_0_ext_clk
*222 clknet_1_1_0_pll_clk
*223 clknet_1_1_0_pll_clk90
*224 divider\.even_0\.N\[0\]
*225 divider\.even_0\.N\[1\]
*226 divider\.even_0\.N\[2\]
*227 divider\.even_0\.counter\[0\]
*228 divider\.even_0\.counter\[1\]
*229 divider\.even_0\.counter\[2\]
*230 divider\.even_0\.out_counter
*231 divider\.odd_0\.counter2\[0\]
*232 divider\.odd_0\.counter2\[1\]
*233 divider\.odd_0\.counter2\[2\]
*234 divider\.odd_0\.counter\[0\]
*235 divider\.odd_0\.counter\[1\]
*236 divider\.odd_0\.counter\[2\]
*237 divider\.odd_0\.initial_begin\[0\]
*238 divider\.odd_0\.initial_begin\[1\]
*239 divider\.odd_0\.initial_begin\[2\]
*240 divider\.odd_0\.old_N\[0\]
*241 divider\.odd_0\.old_N\[1\]
*242 divider\.odd_0\.old_N\[2\]
*243 divider\.odd_0\.out_counter
*244 divider\.odd_0\.out_counter2
*245 divider\.odd_0\.rst_pulse
*246 divider\.out
*247 divider\.syncNp\[0\]
*248 divider\.syncNp\[1\]
*249 divider\.syncNp\[2\]
*250 divider2\.even_0\.N\[0\]
*251 divider2\.even_0\.N\[1\]
*252 divider2\.even_0\.N\[2\]
*253 divider2\.even_0\.counter\[0\]
*254 divider2\.even_0\.counter\[1\]
*255 divider2\.even_0\.counter\[2\]
*256 divider2\.even_0\.out_counter
*257 divider2\.odd_0\.counter2\[0\]
*258 divider2\.odd_0\.counter2\[1\]
*259 divider2\.odd_0\.counter2\[2\]
*260 divider2\.odd_0\.counter\[0\]
*261 divider2\.odd_0\.counter\[1\]
*262 divider2\.odd_0\.counter\[2\]
*263 divider2\.odd_0\.initial_begin\[0\]
*264 divider2\.odd_0\.initial_begin\[1\]
*265 divider2\.odd_0\.initial_begin\[2\]
*266 divider2\.odd_0\.old_N\[0\]
*267 divider2\.odd_0\.old_N\[1\]
*268 divider2\.odd_0\.old_N\[2\]
*269 divider2\.odd_0\.out_counter
*270 divider2\.odd_0\.out_counter2
*271 divider2\.odd_0\.rst_pulse
*272 divider2\.out
*273 divider2\.syncNp\[0\]
*274 divider2\.syncNp\[1\]
*275 divider2\.syncNp\[2\]
*276 ext_clk_syncd
*277 ext_clk_syncd_pre
*278 net1
*279 net10
*280 net11
*281 net12
*282 net13
*283 net14
*284 net15
*285 net16
*286 net17
*287 net18
*288 net19
*289 net2
*290 net20
*291 net21
*292 net22
*293 net23
*294 net24
*295 net25
*296 net26
*297 net27
*298 net28
*299 net29
*300 net3
*301 net30
*302 net31
*303 net32
*304 net33
*305 net4
*306 net5
*307 net6
*308 net7
*309 net8
*310 net9
*311 pll_clk_sel
*312 reset_delay\[0\]
*313 reset_delay\[1\]
*314 reset_delay\[2\]
*315 use_pll_first
*316 use_pll_second
*317 FILLER_0_100
*318 FILLER_0_120
*319 FILLER_0_132
*320 FILLER_0_15
*321 FILLER_0_162
*322 FILLER_0_169
*323 FILLER_0_191
*324 FILLER_0_195
*325 FILLER_0_197
*326 FILLER_0_23
*327 FILLER_0_3
*328 FILLER_0_50
*329 FILLER_0_57
*330 FILLER_0_70
*331 FILLER_0_82
*332 FILLER_0_85
*333 FILLER_10_129
*334 FILLER_10_137
*335 FILLER_10_144
*336 FILLER_10_15
*337 FILLER_10_156
*338 FILLER_10_185
*339 FILLER_10_193
*340 FILLER_10_197
*341 FILLER_10_23
*342 FILLER_10_3
*343 FILLER_10_50
*344 FILLER_10_62
*345 FILLER_10_85
*346 FILLER_11_130
*347 FILLER_11_164
*348 FILLER_11_169
*349 FILLER_11_177
*350 FILLER_11_23
*351 FILLER_11_29
*352 FILLER_11_41
*353 FILLER_11_47
*354 FILLER_11_70
*355 FILLER_11_76
*356 FILLER_11_84
*357 FILLER_11_96
*358 FILLER_12_102
*359 FILLER_12_106
*360 FILLER_12_11
*361 FILLER_12_114
*362 FILLER_12_130
*363 FILLER_12_138
*364 FILLER_12_141
*365 FILLER_12_153
*366 FILLER_12_171
*367 FILLER_12_179
*368 FILLER_12_195
*369 FILLER_12_197
*370 FILLER_12_29
*371 FILLER_12_3
*372 FILLER_12_39
*373 FILLER_12_43
*374 FILLER_12_64
*375 FILLER_12_85
*376 FILLER_12_96
*377 FILLER_13_101
*378 FILLER_13_109
*379 FILLER_13_113
*380 FILLER_13_139
*381 FILLER_13_151
*382 FILLER_13_159
*383 FILLER_13_165
*384 FILLER_13_198
*385 FILLER_13_22
*386 FILLER_13_3
*387 FILLER_13_31
*388 FILLER_13_41
*389 FILLER_13_49
*390 FILLER_13_76
*391 FILLER_13_82
*392 FILLER_13_90
*393 FILLER_14_130
*394 FILLER_14_139
*395 FILLER_14_153
*396 FILLER_14_169
*397 FILLER_14_197
*398 FILLER_14_201
*399 FILLER_14_23
*400 FILLER_14_27
*401 FILLER_14_32
*402 FILLER_14_38
*403 FILLER_14_45
*404 FILLER_14_70
*405 FILLER_14_82
*406 FILLER_14_88
*407 FILLER_15_133
*408 FILLER_15_141
*409 FILLER_15_15
*410 FILLER_15_153
*411 FILLER_15_159
*412 FILLER_15_164
*413 FILLER_15_169
*414 FILLER_15_192
*415 FILLER_15_198
*416 FILLER_15_23
*417 FILLER_15_3
*418 FILLER_15_30
*419 FILLER_15_43
*420 FILLER_15_53
*421 FILLER_15_90
*422 FILLER_16_101
*423 FILLER_16_141
*424 FILLER_16_148
*425 FILLER_16_201
*426 FILLER_16_27
*427 FILLER_16_29
*428 FILLER_16_50
*429 FILLER_16_58
*430 FILLER_16_69
*431 FILLER_16_73
*432 FILLER_16_81
*433 FILLER_17_11
*434 FILLER_17_113
*435 FILLER_17_16
*436 FILLER_17_167
*437 FILLER_17_169
*438 FILLER_17_175
*439 FILLER_17_196
*440 FILLER_17_20
*441 FILLER_17_3
*442 FILLER_17_35
*443 FILLER_17_57
*444 FILLER_17_78
*445 FILLER_17_90
*446 FILLER_18_100
*447 FILLER_18_124
*448 FILLER_18_128
*449 FILLER_18_133
*450 FILLER_18_139
*451 FILLER_18_145
*452 FILLER_18_151
*453 FILLER_18_159
*454 FILLER_18_182
*455 FILLER_18_190
*456 FILLER_18_197
*457 FILLER_18_26
*458 FILLER_18_43
*459 FILLER_18_56
*460 FILLER_18_68
*461 FILLER_18_80
*462 FILLER_18_94
*463 FILLER_19_109
*464 FILLER_19_11
*465 FILLER_19_122
*466 FILLER_19_128
*467 FILLER_19_138
*468 FILLER_19_141
*469 FILLER_19_165
*470 FILLER_19_169
*471 FILLER_19_200
*472 FILLER_19_3
*473 FILLER_19_50
*474 FILLER_19_64
*475 FILLER_19_72
*476 FILLER_19_83
*477 FILLER_1_108
*478 FILLER_1_113
*479 FILLER_1_126
*480 FILLER_1_15
*481 FILLER_1_157
*482 FILLER_1_165
*483 FILLER_1_175
*484 FILLER_1_183
*485 FILLER_1_200
*486 FILLER_1_27
*487 FILLER_1_3
*488 FILLER_1_31
*489 FILLER_1_36
*490 FILLER_1_46
*491 FILLER_1_54
*492 FILLER_1_64
*493 FILLER_1_74
*494 FILLER_2_100
*495 FILLER_2_108
*496 FILLER_2_116
*497 FILLER_2_125
*498 FILLER_2_133
*499 FILLER_2_139
*500 FILLER_2_141
*501 FILLER_2_156
*502 FILLER_2_200
*503 FILLER_2_29
*504 FILLER_2_3
*505 FILLER_2_34
*506 FILLER_2_45
*507 FILLER_2_7
*508 FILLER_2_77
*509 FILLER_2_83
*510 FILLER_2_85
*511 FILLER_2_91
*512 FILLER_3_100
*513 FILLER_3_113
*514 FILLER_3_123
*515 FILLER_3_131
*516 FILLER_3_145
*517 FILLER_3_15
*518 FILLER_3_153
*519 FILLER_3_169
*520 FILLER_3_190
*521 FILLER_3_27
*522 FILLER_3_3
*523 FILLER_3_35
*524 FILLER_3_52
*525 FILLER_3_64
*526 FILLER_3_74
*527 FILLER_4_112
*528 FILLER_4_124
*529 FILLER_4_141
*530 FILLER_4_149
*531 FILLER_4_172
*532 FILLER_4_197
*533 FILLER_4_29
*534 FILLER_4_3
*535 FILLER_4_37
*536 FILLER_4_58
*537 FILLER_4_67
*538 FILLER_4_7
*539 FILLER_4_75
*540 FILLER_4_79
*541 FILLER_4_85
*542 FILLER_4_97
*543 FILLER_5_134
*544 FILLER_5_144
*545 FILLER_5_15
*546 FILLER_5_162
*547 FILLER_5_169
*548 FILLER_5_201
*549 FILLER_5_27
*550 FILLER_5_3
*551 FILLER_5_31
*552 FILLER_5_41
*553 FILLER_5_49
*554 FILLER_5_55
*555 FILLER_5_57
*556 FILLER_5_68
*557 FILLER_5_76
*558 FILLER_5_86
*559 FILLER_6_102
*560 FILLER_6_107
*561 FILLER_6_120
*562 FILLER_6_132
*563 FILLER_6_141
*564 FILLER_6_149
*565 FILLER_6_171
*566 FILLER_6_201
*567 FILLER_6_3
*568 FILLER_6_37
*569 FILLER_6_55
*570 FILLER_6_67
*571 FILLER_6_7
*572 FILLER_7_109
*573 FILLER_7_140
*574 FILLER_7_15
*575 FILLER_7_150
*576 FILLER_7_159
*577 FILLER_7_167
*578 FILLER_7_169
*579 FILLER_7_179
*580 FILLER_7_187
*581 FILLER_7_27
*582 FILLER_7_3
*583 FILLER_7_39
*584 FILLER_7_51
*585 FILLER_7_57
*586 FILLER_7_76
*587 FILLER_7_82
*588 FILLER_7_88
*589 FILLER_8_126
*590 FILLER_8_139
*591 FILLER_8_141
*592 FILLER_8_15
*593 FILLER_8_197
*594 FILLER_8_23
*595 FILLER_8_3
*596 FILLER_8_53
*597 FILLER_8_75
*598 FILLER_8_80
*599 FILLER_9_103
*600 FILLER_9_109
*601 FILLER_9_113
*602 FILLER_9_120
*603 FILLER_9_15
*604 FILLER_9_159
*605 FILLER_9_167
*606 FILLER_9_169
*607 FILLER_9_181
*608 FILLER_9_27
*609 FILLER_9_3
*610 FILLER_9_39
*611 FILLER_9_51
*612 FILLER_9_55
*613 FILLER_9_57
*614 FILLER_9_61
*615 FILLER_9_65
*616 FILLER_9_77
*617 FILLER_9_81
*618 FILLER_9_92
*619 PHY_0
*620 PHY_1
*621 PHY_10
*622 PHY_11
*623 PHY_12
*624 PHY_13
*625 PHY_14
*626 PHY_15
*627 PHY_16
*628 PHY_17
*629 PHY_18
*630 PHY_19
*631 PHY_2
*632 PHY_20
*633 PHY_21
*634 PHY_22
*635 PHY_23
*636 PHY_24
*637 PHY_25
*638 PHY_26
*639 PHY_27
*640 PHY_28
*641 PHY_29
*642 PHY_3
*643 PHY_30
*644 PHY_31
*645 PHY_32
*646 PHY_33
*647 PHY_34
*648 PHY_35
*649 PHY_36
*650 PHY_37
*651 PHY_38
*652 PHY_39
*653 PHY_4
*654 PHY_5
*655 PHY_6
*656 PHY_7
*657 PHY_8
*658 PHY_9
*659 TAP_100
*660 TAP_101
*661 TAP_102
*662 TAP_103
*663 TAP_104
*664 TAP_105
*665 TAP_106
*666 TAP_107
*667 TAP_108
*668 TAP_109
*669 TAP_110
*670 TAP_111
*671 TAP_112
*672 TAP_113
*673 TAP_114
*674 TAP_115
*675 TAP_116
*676 TAP_40
*677 TAP_41
*678 TAP_42
*679 TAP_43
*680 TAP_44
*681 TAP_45
*682 TAP_46
*683 TAP_47
*684 TAP_48
*685 TAP_49
*686 TAP_50
*687 TAP_51
*688 TAP_52
*689 TAP_53
*690 TAP_54
*691 TAP_55
*692 TAP_56
*693 TAP_57
*694 TAP_58
*695 TAP_59
*696 TAP_60
*697 TAP_61
*698 TAP_62
*699 TAP_63
*700 TAP_64
*701 TAP_65
*702 TAP_66
*703 TAP_67
*704 TAP_68
*705 TAP_69
*706 TAP_70
*707 TAP_71
*708 TAP_72
*709 TAP_73
*710 TAP_74
*711 TAP_75
*712 TAP_76
*713 TAP_77
*714 TAP_78
*715 TAP_79
*716 TAP_80
*717 TAP_81
*718 TAP_82
*719 TAP_83
*720 TAP_84
*721 TAP_85
*722 TAP_86
*723 TAP_87
*724 TAP_88
*725 TAP_89
*726 TAP_90
*727 TAP_91
*728 TAP_92
*729 TAP_93
*730 TAP_94
*731 TAP_95
*732 TAP_96
*733 TAP_97
*734 TAP_98
*735 TAP_99
*736 _204_
*737 _205_
*738 _206_
*739 _207_
*740 _208_
*741 _209_
*742 _210_
*743 _211_
*744 _212_
*745 _213_
*746 _214_
*747 _215_
*748 _216_
*749 _217_
*750 _218_
*751 _219_
*752 _220_
*753 _221_
*754 _222_
*755 _223_
*756 _224_
*757 _225_
*758 _226_
*759 _227_
*760 _228_
*761 _229_
*762 _230_
*763 _231_
*764 _232_
*765 _233_
*766 _234_
*767 _235_
*768 _236_
*769 _237_
*770 _238_
*771 _239_
*772 _240_
*773 _241_
*774 _242__1
*775 _243_
*776 _244_
*777 _245_
*778 _246__2
*779 _247_
*780 _248_
*781 _249_
*782 _250_
*783 _251_
*784 _252_
*785 _253_
*786 _254_
*787 _255_
*788 _256_
*789 _257_
*790 _258_
*791 _259_
*792 _260_
*793 _261_
*794 _262__3
*795 _263_
*796 _264_
*797 _265_
*798 _266_
*799 _267_
*800 _268_
*801 _269_
*802 _270_
*803 _271_
*804 _272_
*805 _273_
*806 _274_
*807 _275_
*808 _276_
*809 _277_
*810 _278_
*811 _279_
*812 _280_
*813 _281_
*814 _282_
*815 _283_
*816 _284_
*817 _285_
*818 _286_
*819 _287_
*820 _288_
*821 _289_
*822 _290_
*823 _291_
*824 _292_
*825 _293_
*826 _294_
*827 _295_
*828 _296_
*829 _297_
*830 _298_
*831 _299_
*832 _300_
*833 _301__4
*834 _302_
*835 _303_
*836 _304_
*837 _305__5
*838 _306_
*839 _307_
*840 _308_
*841 _309_
*842 _310_
*843 _311_
*844 _312_
*845 _313_
*846 _314_
*847 _315_
*848 _316_
*849 _317_
*850 _318_
*851 _319_
*852 _320_
*853 _321_
*854 _322_
*855 _323_
*856 _324_
*857 _325_
*858 _326_
*859 _327_
*860 _328_
*861 _329_
*862 _330_
*863 _331_
*864 _332_
*865 _333_
*866 _334__6
*867 _335_
*868 _336_
*869 _337_
*870 _338_
*871 _339_
*872 _340_
*873 _341_
*874 _342_
*875 _343_
*876 _344_
*877 _345_
*878 _346_
*879 _347_
*880 _348_
*881 _349_
*882 _350_
*883 _351_
*884 _352_
*885 _353_
*886 _354_
*887 _355_
*888 _356_
*889 _357_
*890 _358_
*891 _359_
*892 _360_
*893 _361_
*894 _362_
*895 _363_
*896 _364_
*897 _365_
*898 _366_
*899 _367_
*900 _368_
*901 _369_
*902 _370_
*903 _371_
*904 _372_
*905 _373_
*906 _374_
*907 _375_
*908 _376_
*909 _377_
*910 _378__13
*911 _379_
*912 _380_
*913 _381_
*914 _382_
*915 _383_
*916 _384_
*917 _385_
*918 _386_
*919 _387_
*920 _388_
*921 _389_
*922 _390_
*923 _391_
*924 _392_
*925 _393_
*926 _394_
*927 _395_
*928 _396_
*929 _397_
*930 _398_
*931 _399_
*932 _400_
*933 _401_
*934 _402_
*935 _403_
*936 _404_
*937 _405_
*938 _406_
*939 _407_
*940 _408_
*941 _409_
*942 _410_
*943 _411_
*944 _412_
*945 _413_
*946 _414_
*947 _415_
*948 _416_
*949 _417_
*950 _418_
*951 _419_
*952 _420_
*953 _421_
*954 _422_
*955 _423_
*956 _424_
*957 _425_
*958 _426_
*959 _427_
*960 _428_
*961 _429_
*962 _430_
*963 _431_
*964 _432_
*965 _433_
*966 _434_
*967 _435_
*968 _436_
*969 _437_
*970 _438_
*971 _439_
*972 _440_
*973 _441_
*974 _442_
*975 _443_
*976 _444_
*977 _445_
*978 _446_
*979 _447_
*980 _448_
*981 _449_
*982 _450_
*983 _451_
*984 _452_
*985 _453_
*986 _454_
*987 _455_
*988 _456_
*989 _457_
*990 _458_
*991 _459_
*992 _460_
*993 _461_
*994 _462_
*995 _463_
*996 _464_
*997 _465_
*998 _466_
*999 _467_
*1000 _468_
*1001 _469_
*1002 _470_
*1003 clkbuf_0_ext_clk
*1004 clkbuf_0_pll_clk
*1005 clkbuf_0_pll_clk90
*1006 clkbuf_1_0_0_ext_clk
*1007 clkbuf_1_0_0_pll_clk
*1008 clkbuf_1_0_0_pll_clk90
*1009 clkbuf_1_1_0_ext_clk
*1010 clkbuf_1_1_0_pll_clk
*1011 clkbuf_1_1_0_pll_clk90
*1012 hold1
*1013 input1
*1014 input2
*1015 input3
*1016 input4
*1017 input5
*1018 input6
*1019 input7
*1020 input8
*1021 input9
*1022 output10
*1023 output11
*1024 output12
*1025 rebuffer10
*1026 rebuffer11
*1027 rebuffer2
*1028 rebuffer3
*1029 rebuffer4
*1030 rebuffer5
*1031 rebuffer6
*1032 rebuffer7
*1033 rebuffer8
*1034 rebuffer9
*1035 split1
*1036 split12
*1037 split2

*PORTS
core_clk O
ext_clk I
ext_clk_sel I
ext_reset I
pll_clk I
pll_clk90 I
resetb I
resetb_sync O
sel2[0] I
sel2[1] I
sel2[2] I
sel[0] I
sel[1] I
sel[2] I
user_clk O

*D_NET *3 0.000427842
*CONN
*P core_clk O
*I *1022:X O *D sky130_fd_sc_hd__clkbuf_1
*CAP
1 core_clk 0.000213921
2 *1022:X 0.000213921
*RES
1 *1022:X core_clk 17.8118 
*END

*D_NET *4 0.00532019
*CONN
*P ext_clk I
*I *1003:A I *D sky130_fd_sc_hd__clkbuf_16
*CAP
1 ext_clk 0.0012217
2 *1003:A 0
3 *4:10 0.0012217
4 *4:10 *781:A 0.000453284
5 *4:10 *781:C_N 7.01935e-06
6 *4:10 *784:A 9.81288e-06
7 *4:10 *875:A0 0.000360307
8 *4:10 *875:A1 0.000219501
9 *4:10 *876:A 0.000508721
10 *4:10 *898:A 2.75725e-05
11 *4:10 *898:B 0.000309709
12 *4:10 *1006:A 0.000219249
13 *4:10 *104:13 5.30117e-05
14 *4:10 *257:40 0.000558851
15 *4:10 *257:44 0.000112241
16 *4:10 *258:27 3.7504e-05
*RES
1 ext_clk *4:10 44.3463 
2 *4:10 *1003:A 9.24915 
*END

*D_NET *5 0.000693625
*CONN
*P ext_clk_sel I
*I *1013:A I *D sky130_fd_sc_hd__clkbuf_1
*CAP
1 ext_clk_sel 0.000320552
2 *1013:A 0.000320552
3 *1013:A *906:A 5.25197e-05
4 *1013:A *291:15 0
*RES
1 ext_clk_sel *1013:A 21.1549 
*END

*D_NET *6 0.00108587
*CONN
*P ext_reset I
*I *1014:A I *D sky130_fd_sc_hd__clkbuf_1
*CAP
1 ext_reset 0.000478141
2 *1014:A 0.000478141
3 *1014:A *8:7 0.000129592
*RES
1 ext_reset *1014:A 26.9106 
*END

*D_NET *7 0.00680051
*CONN
*P pll_clk I
*I *1004:A I *D sky130_fd_sc_hd__clkbuf_16
*CAP
1 pll_clk 0.00133428
2 *1004:A 0.00122026
3 *7:15 0.00255455
4 *1004:A *909:A 9.65932e-05
5 *1004:A *909:B 6.50586e-05
6 *1004:A *1002:D 0.000164829
7 *1004:A *1002:RESET_B 2.82583e-05
8 *1004:A *260:5 2.41483e-05
9 *1004:A *260:9 3.14978e-05
10 *1004:A *300:334 0.000179882
11 *1004:A *300:344 0.000352748
12 *7:15 *800:A 0.000144525
13 *7:15 *800:B 0.000136813
14 *7:15 *804:A 7.01144e-05
15 *7:15 *968:D 3.77659e-05
16 *7:15 *970:CLK 0
17 *7:15 *987:D 0.00013646
18 *7:15 *142:6 6.00124e-05
19 *7:15 *144:6 0
20 *7:15 *253:25 1.80448e-05
21 *7:15 *272:10 0
22 *7:15 *272:47 0
23 *7:15 *280:10 0.000144659
24 *7:15 *300:443 0
25 *7:15 *300:449 0
26 *7:15 *300:458 0
27 *7:15 *315:10 0
*RES
1 pll_clk *7:15 41.6284 
2 *7:15 *1004:A 44.0204 
*END

*D_NET *8 0.0104273
*CONN
*P pll_clk90 I
*I *1005:A I *D sky130_fd_sc_hd__clkbuf_16
*CAP
1 pll_clk90 0.000592194
2 *1005:A 1.99816e-05
3 *8:8 0.00307518
4 *8:7 0.0036474
5 *1005:A *1011:A 9.95922e-06
6 *8:7 *907:A 6.84737e-05
7 *8:7 *919:A0 0
8 *8:7 *967:CLK 0
9 *8:7 *1018:A 0
10 *8:8 *802:A 8.4464e-05
11 *8:8 *945:A0 1.00766e-05
12 *8:8 *966:D 6.43652e-05
13 *8:8 *967:CLK 7.19887e-05
14 *8:8 *969:D 0.000135784
15 *8:8 *987:D 0.000457582
16 *8:8 *1011:A 0.000914168
17 *8:8 *223:11 1.32618e-05
18 *8:8 *223:77 0.000750132
19 *8:8 *223:89 0.000110458
20 *8:8 *272:17 0.000246361
21 *8:8 *272:29 2.58757e-05
22 *1014:A *8:7 0.000129592
*RES
1 pll_clk90 *8:7 20.5727 
2 *8:7 *8:8 50.0831 
3 *8:8 *1005:A 9.82786 
*END

*D_NET *9 0.000336665
*CONN
*P resetb I
*I *1015:A I *D sky130_fd_sc_hd__buf_12
*CAP
1 resetb 0.000168332
2 *1015:A 0.000168332
*RES
1 resetb *1015:A 18.0971 
*END

*D_NET *10 0.000788368
*CONN
*P resetb_sync O
*I *1023:X O *D sky130_fd_sc_hd__buf_2
*CAP
1 resetb_sync 0.000394184
2 *1023:X 0.000394184
*RES
1 *1023:X resetb_sync 21.6884 
*END

*D_NET *11 0.000462897
*CONN
*P sel2[0] I
*I *1016:A I *D sky130_fd_sc_hd__clkbuf_1
*CAP
1 sel2[0] 0.000231449
2 *1016:A 0.000231449
*RES
1 sel2[0] *1016:A 18.2481 
*END

*D_NET *12 0.00057393
*CONN
*P sel2[1] I
*I *1017:A I *D sky130_fd_sc_hd__clkbuf_1
*CAP
1 sel2[1] 0.000286965
2 *1017:A 0.000286965
*RES
1 sel2[1] *1017:A 19.4939 
*END

*D_NET *13 0.000948448
*CONN
*P sel2[2] I
*I *1018:A I *D sky130_fd_sc_hd__clkbuf_1
*CAP
1 sel2[2] 0.000461388
2 *1018:A 0.000461388
3 *1018:A *967:D 2.56724e-05
4 *8:7 *1018:A 0
*RES
1 sel2[2] *1018:A 20.3681 
*END

*D_NET *14 0.000539893
*CONN
*P sel[0] I
*I *1019:A I *D sky130_fd_sc_hd__clkbuf_1
*CAP
1 sel[0] 0.000259727
2 *1019:A 0.000259727
3 *1019:A *311:11 2.0439e-05
*RES
1 sel[0] *1019:A 19.0786 
*END

*D_NET *15 0.000904234
*CONN
*P sel[1] I
*I *1020:A I *D sky130_fd_sc_hd__clkbuf_1
*CAP
1 sel[1] 0.000406204
2 *1020:A 0.000406204
3 *1020:A *961:CLK 0
4 *1020:A *1030:A 4.6608e-05
5 *1020:A *246:48 0
6 *1020:A *311:11 4.52171e-05
*RES
1 sel[1] *1020:A 23.2312 
*END

*D_NET *16 0.000697516
*CONN
*P sel[2] I
*I *1021:A I *D sky130_fd_sc_hd__clkbuf_1
*CAP
1 sel[2] 0.00033619
2 *1021:A 0.00033619
3 *1021:A *961:D 2.51362e-05
*RES
1 sel[2] *1021:A 20.7397 
*END

*D_NET *17 0.0012131
*CONN
*P user_clk O
*I *1024:X O *D sky130_fd_sc_hd__clkbuf_1
*CAP
1 user_clk 0.000502971
2 *1024:X 0.000502971
3 user_clk *293:24 0.000127127
4 user_clk *293:36 8.00313e-05
*RES
1 *1024:X user_clk 22.8032 
*END

*D_NET *18 0.0085945
*CONN
*I *750:B1 I *D sky130_fd_sc_hd__o21a_1
*I *765:A2 I *D sky130_fd_sc_hd__a21bo_1
*I *763:A2 I *D sky130_fd_sc_hd__a21bo_1
*I *922:A0 I *D sky130_fd_sc_hd__mux2_4
*I *761:A2 I *D sky130_fd_sc_hd__a21bo_1
*I *749:Y O *D sky130_fd_sc_hd__nand2_2
*CAP
1 *750:B1 0.000188319
2 *765:A2 0.000178868
3 *763:A2 0
4 *922:A0 0
5 *761:A2 0.000379032
6 *749:Y 0
7 *18:49 0.000608627
8 *18:44 0.000312463
9 *18:43 0.000590282
10 *18:27 0.000702803
11 *18:15 0.000298776
12 *18:4 0.000494265
13 *750:B1 *755:B 6.8054e-05
14 *750:B1 *758:B1_N 6.74955e-05
15 *750:B1 *759:A 0.000104372
16 *750:B1 *222:118 0.00030565
17 *750:B1 *271:10 2.76838e-05
18 *761:A2 *761:A1 9.87648e-05
19 *761:A2 *761:B1_N 5.04829e-06
20 *761:A2 *20:9 9.65752e-06
21 *765:A2 *759:B 0.000214105
22 *765:A2 *764:A 3.64672e-05
23 *765:A2 *911:S 6.8921e-05
24 *765:A2 *912:S 1.24478e-05
25 *765:A2 *222:118 0.000224456
26 *765:A2 *271:10 6.64671e-06
27 *18:15 *749:A 0.000209835
28 *18:15 *20:9 0.000110458
29 *18:15 *250:62 0.000167353
30 *18:27 *749:A 2.16355e-05
31 *18:27 *996:D 1.41307e-05
32 *18:27 *220:9 0.000158637
33 *18:27 *250:62 1.65872e-05
34 *18:27 *271:37 0.00016553
35 *18:43 *763:A1 0.000259306
36 *18:43 *923:A1 0.000129383
37 *18:43 *924:A0 0.000420492
38 *18:43 *112:15 0.000355341
39 *18:43 *112:27 9.9406e-05
40 *18:43 *271:29 0.000119355
41 *18:43 *271:37 0.000644994
42 *18:43 *293:54 0.000114916
43 *18:49 *886:B1 0.000159032
44 *18:49 *116:31 0.000109427
45 *18:49 *116:39 0.00016386
46 *18:49 *271:29 0.000151615
*RES
1 *749:Y *18:4 9.24915 
2 *18:4 *761:A2 27.5907 
3 *18:4 *18:15 5.71483 
4 *18:15 *922:A0 9.24915 
5 *18:15 *18:27 14.6338 
6 *18:27 *763:A2 9.24915 
7 *18:27 *18:43 29.2149 
8 *18:43 *18:44 81.1229 
9 *18:44 *18:49 20.5732 
10 *18:49 *765:A2 20.4599 
11 *18:49 *750:B1 19.7337 
*END

*D_NET *19 0.0105766
*CONN
*I *820:A2 I *D sky130_fd_sc_hd__a21bo_1
*I *861:B1 I *D sky130_fd_sc_hd__o21a_1
*I *824:A2 I *D sky130_fd_sc_hd__a21bo_1
*I *822:A2 I *D sky130_fd_sc_hd__a21bo_1
*I *929:A0 I *D sky130_fd_sc_hd__mux2_1
*I *818:Y O *D sky130_fd_sc_hd__nand2_2
*CAP
1 *820:A2 2.48968e-06
2 *861:B1 0.000622215
3 *824:A2 0
4 *822:A2 0.000103356
5 *929:A0 0.000307413
6 *818:Y 0
7 *19:42 0.00176188
8 *19:24 0.00139667
9 *19:20 0.00105333
10 *19:4 0.0012046
11 *820:A2 *821:A 1.3023e-05
12 *822:A2 *821:C 1.41291e-05
13 *822:A2 *822:A1 0.000169041
14 *861:B1 *824:A1 0.000164829
15 *861:B1 *861:A1 0.000165521
16 *861:B1 *234:11 7.48876e-05
17 *861:B1 *245:9 0.00033468
18 *861:B1 *245:30 0.000463228
19 *929:A0 *813:A 7.92757e-06
20 *929:A0 *929:A1 0.000101026
21 *929:A0 *153:29 6.05995e-05
22 *929:A0 *245:64 8.63475e-05
23 *929:A0 *299:8 0.00018426
24 *19:20 *813:A 2.41274e-06
25 *19:20 *815:A 1.50288e-05
26 *19:20 *818:A 9.44631e-06
27 *19:20 *819:B 0.000116986
28 *19:20 *821:A 2.01595e-05
29 *19:20 *932:A0 0.000221637
30 *19:20 *979:D 0.000243272
31 *19:20 *156:9 0
32 *19:20 *236:15 0.000222684
33 *19:24 *821:A 0.000333325
34 *19:24 *822:A1 0
35 *19:24 *932:A0 2.72868e-05
36 *19:24 *984:SET_B 0
37 *19:42 *821:B 0.000379158
38 *19:42 *822:A1 0.000261325
39 *19:42 *891:B 6.36477e-05
40 *19:42 *983:CLK 0.000118485
41 *19:42 *235:21 8.20638e-05
42 *19:42 *291:28 0.000168207
*RES
1 *818:Y *19:4 9.24915 
2 *19:4 *929:A0 25.2386 
3 *19:4 *19:20 24.344 
4 *19:20 *19:24 10.2769 
5 *19:24 *822:A2 12.2151 
6 *19:24 *19:42 38.2299 
7 *19:42 *824:A2 9.24915 
8 *19:42 *861:B1 28.5156 
9 *19:20 *820:A2 14.1278 
*END

*D_NET *20 0.00232983
*CONN
*I *769:C I *D sky130_fd_sc_hd__nand3b_1
*I *1025:A I *D sky130_fd_sc_hd__clkbuf_1
*I *922:X O *D sky130_fd_sc_hd__mux2_4
*CAP
1 *769:C 0.000195168
2 *1025:A 0.000135396
3 *922:X 0.00019622
4 *20:9 0.000526784
5 *769:C *771:A 0.000109427
6 *769:C *109:19 2.41827e-05
7 *769:C *126:9 8.19236e-05
8 *769:C *302:11 9.99577e-05
9 *1025:A *993:SET_B 3.24673e-05
10 *1025:A *250:62 8.96332e-05
11 *1025:A *302:11 3.74553e-05
12 *20:9 *749:A 1.17054e-05
13 *20:9 *749:B 2.99287e-05
14 *20:9 *756:A 6.78364e-06
15 *20:9 *109:19 7.01912e-05
16 *20:9 *250:62 0.000562494
17 *761:A2 *20:9 9.65752e-06
18 *18:15 *20:9 0.000110458
*RES
1 *922:X *20:9 26.6293 
2 *20:9 *1025:A 22.1574 
3 *20:9 *769:C 15.5668 
*END

*D_NET *21 0.00198403
*CONN
*I *1028:A I *D sky130_fd_sc_hd__buf_2
*I *828:C I *D sky130_fd_sc_hd__nand3b_1
*I *929:X O *D sky130_fd_sc_hd__mux2_1
*CAP
1 *1028:A 1.71378e-05
2 *828:C 6.5441e-05
3 *929:X 0.000139063
4 *21:7 0.000221642
5 *828:C *827:A2 0.000315978
6 *828:C *832:A2_N 0.000140646
7 *21:7 *825:A 6.9116e-05
8 *21:7 *827:A2 0.000498233
9 *21:7 *832:A1_N 0.000112367
10 *21:7 *832:A2_N 3.20062e-05
11 *21:7 *832:B1 0.000255255
12 *21:7 *832:B2 8.97069e-05
13 *21:7 *224:87 2.74378e-05
*RES
1 *929:X *21:7 17.7611 
2 *21:7 *828:C 13.3243 
3 *21:7 *1028:A 9.82786 
*END

*D_NET *22 0.000553444
*CONN
*I *853:A0 I *D sky130_fd_sc_hd__mux2_1
*I *932:X O *D sky130_fd_sc_hd__mux2_1
*CAP
1 *853:A0 0.00018244
2 *932:X 0.00018244
3 *853:A0 *853:A1 2.15184e-05
4 *853:A0 *932:A0 0.000156955
5 *853:A0 *224:78 1.00901e-05
*RES
1 *932:X *853:A0 21.4401 
*END

*D_NET *23 0.000464389
*CONN
*I *851:A0 I *D sky130_fd_sc_hd__mux2_1
*I *935:X O *D sky130_fd_sc_hd__mux2_1
*CAP
1 *851:A0 0.000179202
2 *935:X 0.000179202
3 *851:A0 *932:S 5.04829e-06
4 *851:A0 *224:70 5.51483e-06
5 *851:A0 *228:9 9.54218e-05
*RES
1 *935:X *851:A0 21.4401 
*END

*D_NET *24 0.000180044
*CONN
*I *870:B I *D sky130_fd_sc_hd__nand2_1
*I *918:X O *D sky130_fd_sc_hd__mux2_1
*CAP
1 *870:B 5.5977e-05
2 *918:X 5.5977e-05
3 *870:B *870:A 6.80895e-05
4 *870:B *918:A1 0
*RES
1 *918:X *870:B 20.2103 
*END

*D_NET *25 0.00188235
*CONN
*I *867:B I *D sky130_fd_sc_hd__nand2_1
*I *914:X O *D sky130_fd_sc_hd__mux2_1
*CAP
1 *867:B 0.000654221
2 *914:X 0.000654221
3 *867:B *868:A2 1.36691e-05
4 *867:B *187:20 3.67528e-06
5 *867:B *232:8 0.000556559
*RES
1 *914:X *867:B 39.2032 
*END

*D_NET *26 0.00159855
*CONN
*I *864:B I *D sky130_fd_sc_hd__nand2_1
*I *939:X O *D sky130_fd_sc_hd__mux2_1
*CAP
1 *864:B 0.000242385
2 *939:X 0.000242385
3 *864:B *840:A 6.321e-05
4 *864:B *840:B 9.57521e-05
5 *864:B *840:C_N 0.000175485
6 *864:B *842:A 1.03434e-05
7 *864:B *847:A1 0.000122845
8 *864:B *939:S 0
9 *864:B *42:7 6.50586e-05
10 *864:B *233:16 0.000581086
*RES
1 *939:X *864:B 29.2528 
*END

*D_NET *27 0.000413724
*CONN
*I *824:A1 I *D sky130_fd_sc_hd__a21bo_1
*I *937:X O *D sky130_fd_sc_hd__mux2_1
*CAP
1 *824:A1 0.000108433
2 *937:X 0.000108433
3 *824:A1 *245:30 3.20289e-05
4 *861:B1 *824:A1 0.000164829
*RES
1 *937:X *824:A1 21.4642 
*END

*D_NET *28 0.00107334
*CONN
*I *822:A1 I *D sky130_fd_sc_hd__a21bo_1
*I *934:X O *D sky130_fd_sc_hd__mux2_1
*CAP
1 *822:A1 0.000142105
2 *934:X 0.000142105
3 *822:A1 *821:A 0.000171288
4 *822:A1 *821:B 0.000122378
5 *822:A1 *821:C 6.50954e-05
6 *822:A2 *822:A1 0.000169041
7 *19:24 *822:A1 0
8 *19:42 *822:A1 0.000261325
*RES
1 *934:X *822:A1 34.3512 
*END

*D_NET *29 0.00102484
*CONN
*I *820:A1 I *D sky130_fd_sc_hd__a21bo_1
*I *931:X O *D sky130_fd_sc_hd__mux2_1
*CAP
1 *820:A1 0.000255881
2 *931:X 0.000255881
3 *820:A1 *820:B1_N 0.000118485
4 *820:A1 *226:28 2.84786e-05
5 *820:A1 *236:15 0.000253916
6 *820:A1 *245:42 0.000112201
*RES
1 *931:X *820:A1 34.52 
*END

*D_NET *30 0.000581763
*CONN
*I *738:A0 I *D sky130_fd_sc_hd__mux2_1
*I *919:X O *D sky130_fd_sc_hd__mux2_1
*CAP
1 *738:A0 0.000141701
2 *919:X 0.000141701
3 *738:A0 *738:S 0.000114545
4 *738:A0 *253:13 0.000117376
5 *738:A0 *253:19 6.64392e-05
*RES
1 *919:X *738:A0 31.9934 
*END

*D_NET *31 0.000794683
*CONN
*I *736:A0 I *D sky130_fd_sc_hd__mux2_1
*I *942:X O *D sky130_fd_sc_hd__mux2_1
*CAP
1 *736:A0 0.000156004
2 *942:X 0.000156004
3 *736:A0 *736:A1 6.27718e-05
4 *736:A0 *942:A0 0.000419903
*RES
1 *942:X *736:A0 23.6826 
*END

*D_NET *32 0.000607597
*CONN
*I *798:B I *D sky130_fd_sc_hd__nand2_1
*I *916:X O *D sky130_fd_sc_hd__mux2_1
*CAP
1 *798:B 0.000162676
2 *916:X 0.000162676
3 *798:B *797:A 0.000137985
4 *798:B *798:A 6.2645e-05
5 *798:B *137:7 8.1614e-05
*RES
1 *916:X *798:B 31.471 
*END

*D_NET *33 0.00248324
*CONN
*I *795:B I *D sky130_fd_sc_hd__nand2_1
*I *941:X O *D sky130_fd_sc_hd__mux2_1
*CAP
1 *795:B 0.000639172
2 *941:X 0.000639172
3 *795:B *792:B 0.000672994
4 *795:B *795:A 6.36477e-05
5 *795:B *915:S 9.46208e-05
6 *795:B *133:16 0.00029066
7 *795:B *271:65 5.04829e-06
8 *795:B *271:72 7.79217e-05
*RES
1 *941:X *795:B 44.9181 
*END

*D_NET *34 0.00249702
*CONN
*I *792:B I *D sky130_fd_sc_hd__nand2_1
*I *928:X O *D sky130_fd_sc_hd__mux2_1
*CAP
1 *792:B 0.000361798
2 *928:X 0.000361798
3 *792:B *793:A1 0.000128091
4 *792:B *795:A 4.58907e-05
5 *792:B *796:B1 4.58907e-05
6 *792:B *133:16 2.19275e-05
7 *792:B *138:21 0.000695889
8 *792:B *138:42 0.000162739
9 *795:B *792:B 0.000672994
*RES
1 *928:X *792:B 35.3534 
*END

*D_NET *35 0.000238469
*CONN
*I *765:A1 I *D sky130_fd_sc_hd__a21bo_1
*I *912:X O *D sky130_fd_sc_hd__mux2_1
*CAP
1 *765:A1 9.36101e-05
2 *912:X 9.36101e-05
3 *765:A1 *222:118 5.12484e-05
*RES
1 *912:X *765:A1 29.7455 
*END

*D_NET *36 0.00053487
*CONN
*I *763:A1 I *D sky130_fd_sc_hd__a21bo_1
*I *924:X O *D sky130_fd_sc_hd__mux2_1
*CAP
1 *763:A1 0.000137782
2 *924:X 0.000137782
3 *18:43 *763:A1 0.000259306
*RES
1 *924:X *763:A1 22.4287 
*END

*D_NET *37 0.000402356
*CONN
*I *761:A1 I *D sky130_fd_sc_hd__a21bo_1
*I *921:X O *D sky130_fd_sc_hd__mux2_1
*CAP
1 *761:A1 0.000141448
2 *921:X 0.000141448
3 *761:A1 *761:B1_N 2.0696e-05
4 *761:A2 *761:A1 9.87648e-05
*RES
1 *921:X *761:A1 22.5734 
*END

*D_NET *38 0.00107951
*CONN
*I *943:S I *D sky130_fd_sc_hd__mux2_1
*I *880:Y O *D sky130_fd_sc_hd__nor2_1
*CAP
1 *943:S 0.000333013
2 *880:Y 0.000333013
3 *943:S *222:49 0.000139817
4 *943:S *222:93 0.000114659
5 *943:S *225:28 0.00015901
*RES
1 *880:Y *943:S 35.3154 
*END

*D_NET *39 0.000328605
*CONN
*I *945:S I *D sky130_fd_sc_hd__mux2_1
*I *884:Y O *D sky130_fd_sc_hd__nor2_1
*CAP
1 *945:S 9.3397e-05
2 *884:Y 9.3397e-05
3 *945:S *252:10 0.000141811
*RES