*SPEF "ieee 1481-1999"
*DESIGN "caravel_clocking"
*DATE "11:11:11 Fri 11 11, 1111"
*VENDOR "OpenRCX"
*PROGRAM "Parallel Extraction"
*VERSION "1.0"
*DESIGN_FLOW "NAME_SCOPE LOCAL" "PIN_CAP NONE"
*DIVIDER /
*DELIMITER :
*BUS_DELIMITER []
*T_UNIT 1 NS
*C_UNIT 1 PF
*R_UNIT 1 OHM
*L_UNIT 1 HENRY

*NAME_MAP
*3 core_clk
*4 ext_clk
*5 ext_clk_sel
*6 ext_reset
*7 pll_clk
*8 pll_clk90
*9 resetb
*10 resetb_sync
*11 sel2[0]
*12 sel2[1]
*13 sel2[2]
*14 sel[0]
*15 sel[1]
*16 sel[2]
*17 user_clk
*18 _000_
*19 _001_
*20 _002_
*21 _003_
*22 _004_
*23 _005_
*24 _006_
*25 _007_
*26 _008_
*27 _009_
*28 _010_
*29 _011_
*30 _012_
*31 _013_
*32 _014_
*33 _015_
*34 _016_
*35 _017_
*36 _018_
*37 _019_
*38 _020_
*39 _021_
*40 _022_
*41 _023_
*42 _024_
*43 _025_
*44 _026_
*45 _027_
*46 _028_
*47 _029_
*48 _030_
*49 _031_
*50 _032_
*51 _033_
*52 _034_
*53 _035_
*54 _036_
*55 _037_
*56 _038_
*57 _039_
*58 _040_
*59 _041_
*60 _042_
*61 _043_
*62 _044_
*63 _045_
*64 _046_
*65 _047_
*66 _057_
*67 _058_
*68 _059_
*69 _060_
*70 _061_
*71 _062_
*72 _063_
*73 _064_
*74 _065_
*75 _066_
*76 _067_
*77 _068_
*78 _069_
*79 _070_
*80 _071_
*81 _072_
*82 _073_
*83 _074_
*84 _075_
*85 _076_
*86 _077_
*87 _078_
*88 _079_
*89 _080_
*90 _081_
*91 _082_
*92 _083_
*93 _084_
*94 _085_
*95 _086_
*96 _087_
*97 _088_
*98 _089_
*99 _090_
*100 _091_
*101 _092_
*102 _093_
*103 _094_
*104 _095_
*105 _096_
*106 _097_
*107 _098_
*108 _099_
*109 _100_
*110 _101_
*111 _102_
*112 _103_
*113 _104_
*114 _105_
*115 _106_
*116 _107_
*117 _108_
*118 _109_
*119 _110_
*120 _111_
*121 _112_
*122 _113_
*123 _114_
*124 _115_
*125 _116_
*126 _117_
*127 _118_
*128 _119_
*129 _120_
*130 _121_
*131 _122_
*132 _123_
*133 _124_
*134 _125_
*135 _126_
*136 _127_
*137 _128_
*138 _129_
*139 _130_
*140 _131_
*141 _132_
*142 _133_
*143 _134_
*144 _135_
*145 _136_
*146 _137_
*147 _138_
*148 _139_
*149 _140_
*150 _141_
*151 _142_
*152 _143_
*153 _144_
*154 _145_
*155 _146_
*156 _147_
*157 _148_
*158 _149_
*159 _150_
*160 _151_
*161 _152_
*162 _153_
*163 _154_
*164 _155_
*165 _156_
*166 _157_
*167 _158_
*168 _159_
*169 _160_
*170 _161_
*171 _162_
*172 _163_
*173 _164_
*174 _165_
*175 _166_
*176 _167_
*177 _168_
*178 _169_
*179 _170_
*180 _171_
*181 _172_
*182 _173_
*183 _174_
*184 _175_
*185 _176_
*186 _177_
*187 _178_
*188 _179_
*189 _180_
*190 _181_
*191 _182_
*192 _183_
*193 _184_
*194 _185_
*195 _186_
*196 _187_
*197 _188_
*198 _189_
*199 _190_
*200 _191_
*201 _192_
*202 _193_
*203 _194_
*204 _195_
*205 _196_
*206 _197_
*207 _198_
*208 _199_
*209 _200_
*210 _201_
*211 _202_
*212 clknet_0_ext_clk
*213 clknet_0_pll_clk
*214 clknet_0_pll_clk90
*215 clknet_1_0_0_ext_clk
*216 clknet_1_0_0_pll_clk
*217 clknet_1_0_0_pll_clk90
*218 clknet_1_1_0_ext_clk
*219 clknet_1_1_0_pll_clk
*220 clknet_1_1_0_pll_clk90
*221 divider\.even_0\.N\[0\]
*222 divider\.even_0\.N\[1\]
*223 divider\.even_0\.N\[2\]
*224 divider\.even_0\.counter\[0\]
*225 divider\.even_0\.counter\[1\]
*226 divider\.even_0\.counter\[2\]
*227 divider\.even_0\.out_counter
*228 divider\.odd_0\.counter2\[0\]
*229 divider\.odd_0\.counter2\[1\]
*230 divider\.odd_0\.counter2\[2\]
*231 divider\.odd_0\.counter\[0\]
*232 divider\.odd_0\.counter\[1\]
*233 divider\.odd_0\.counter\[2\]
*234 divider\.odd_0\.initial_begin\[0\]
*235 divider\.odd_0\.initial_begin\[1\]
*236 divider\.odd_0\.initial_begin\[2\]
*237 divider\.odd_0\.old_N\[0\]
*238 divider\.odd_0\.old_N\[1\]
*239 divider\.odd_0\.old_N\[2\]
*240 divider\.odd_0\.out_counter
*241 divider\.odd_0\.out_counter2
*242 divider\.odd_0\.rst_pulse
*243 divider\.out
*244 divider\.syncNp\[0\]
*245 divider\.syncNp\[1\]
*246 divider\.syncNp\[2\]
*247 divider2\.even_0\.N\[0\]
*248 divider2\.even_0\.N\[1\]
*249 divider2\.even_0\.N\[2\]
*250 divider2\.even_0\.counter\[0\]
*251 divider2\.even_0\.counter\[1\]
*252 divider2\.even_0\.counter\[2\]
*253 divider2\.even_0\.out_counter
*254 divider2\.odd_0\.counter2\[0\]
*255 divider2\.odd_0\.counter2\[1\]
*256 divider2\.odd_0\.counter2\[2\]
*257 divider2\.odd_0\.counter\[0\]
*258 divider2\.odd_0\.counter\[1\]
*259 divider2\.odd_0\.counter\[2\]
*260 divider2\.odd_0\.initial_begin\[0\]
*261 divider2\.odd_0\.initial_begin\[1\]
*262 divider2\.odd_0\.initial_begin\[2\]
*263 divider2\.odd_0\.old_N\[0\]
*264 divider2\.odd_0\.old_N\[1\]
*265 divider2\.odd_0\.old_N\[2\]
*266 divider2\.odd_0\.out_counter
*267 divider2\.odd_0\.out_counter2
*268 divider2\.odd_0\.rst_pulse
*269 divider2\.out
*270 divider2\.syncNp\[0\]
*271 divider2\.syncNp\[1\]
*272 divider2\.syncNp\[2\]
*273 ext_clk_syncd
*274 ext_clk_syncd_pre
*275 net1
*276 net10
*277 net11
*278 net12
*279 net13
*280 net14
*281 net15
*282 net16
*283 net17
*284 net18
*285 net19
*286 net2
*287 net20
*288 net21
*289 net22
*290 net23
*291 net24
*292 net25
*293 net26
*294 net27
*295 net28
*296 net3
*297 net4
*298 net5
*299 net6
*300 net7
*301 net8
*302 net9
*303 pll_clk_sel
*304 reset_delay\[0\]
*305 reset_delay\[1\]
*306 reset_delay\[2\]
*307 use_pll_first
*308 use_pll_second
*309 ANTENNA__274__B1
*310 ANTENNA__278__B1
*311 ANTENNA__310__B1
*312 ANTENNA__313__A
*313 ANTENNA__315__S
*314 ANTENNA__317__S
*315 ANTENNA__338__A_N
*316 ANTENNA__343__S
*317 ANTENNA__350__A_N
*318 ANTENNA__385__A1
*319 ANTENNA__386__A1
*320 ANTENNA__404__A1
*321 ANTENNA__405__A1
*322 ANTENNA__414__D
*323 ANTENNA__421__SET_B
*324 ANTENNA__422__SET_B
*325 ANTENNA__423__SET_B
*326 ANTENNA__424__RESET_B
*327 ANTENNA__425__RESET_B
*328 ANTENNA__426__RESET_B
*329 ANTENNA__427__RESET_B
*330 ANTENNA__428__SET_B
*331 ANTENNA__429__RESET_B
*332 ANTENNA__430__RESET_B
*333 ANTENNA__431__SET_B
*334 ANTENNA__432__RESET_B
*335 ANTENNA__433__RESET_B
*336 ANTENNA__434__SET_B
*337 ANTENNA__435__RESET_B
*338 ANTENNA__436__RESET_B
*339 ANTENNA__437__SET_B
*340 ANTENNA__438__RESET_B
*341 ANTENNA__439__SET_B
*342 ANTENNA__440__RESET_B
*343 ANTENNA__441__SET_B
*344 ANTENNA__442__RESET_B
*345 ANTENNA__443__RESET_B
*346 ANTENNA__444__SET_B
*347 ANTENNA__445__RESET_B
*348 ANTENNA__446__RESET_B
*349 ANTENNA__447__SET_B
*350 ANTENNA__448__RESET_B
*351 ANTENNA__449__SET_B
*352 ANTENNA__450__RESET_B
*353 ANTENNA__451__RESET_B
*354 ANTENNA__452__SET_B
*355 ANTENNA__453__RESET_B
*356 ANTENNA__454__SET_B
*357 ANTENNA__455__SET_B
*358 ANTENNA__456__RESET_B
*359 ANTENNA__457__SET_B
*360 ANTENNA__458__RESET_B
*361 ANTENNA__459__SET_B
*362 ANTENNA__460__RESET_B
*363 ANTENNA__461__SET_B
*364 ANTENNA__462__RESET_B
*365 ANTENNA__463__RESET_B
*366 ANTENNA__464__SET_B
*367 ANTENNA__465__RESET_B
*368 ANTENNA__466__SET_B
*369 ANTENNA__467__RESET_B
*370 ANTENNA__468__SET_B
*371 ANTENNA__469__RESET_B
*372 ANTENNA__470__RESET_B
*373 ANTENNA_clkbuf_0_ext_clk_A
*374 ANTENNA_clkbuf_0_pll_clk90_A
*375 ANTENNA_clkbuf_0_pll_clk_A
*376 ANTENNA_input1_A
*377 ANTENNA_input2_A
*378 ANTENNA_input3_A
*379 ANTENNA_input4_A
*380 ANTENNA_input5_A
*381 ANTENNA_input6_A
*382 ANTENNA_input7_A
*383 ANTENNA_input8_A
*384 ANTENNA_input9_A
*385 FILLER_0_103
*386 FILLER_0_105
*387 FILLER_0_11
*388 FILLER_0_118
*389 FILLER_0_135
*390 FILLER_0_14
*391 FILLER_0_150
*392 FILLER_0_157
*393 FILLER_0_180
*394 FILLER_0_190
*395 FILLER_0_194
*396 FILLER_0_196
*397 FILLER_0_27
*398 FILLER_0_3
*399 FILLER_0_40
*400 FILLER_0_53
*401 FILLER_0_57
*402 FILLER_0_69
*403 FILLER_0_77
*404 FILLER_0_79
*405 FILLER_0_92
*406 FILLER_0_98
*407 FILLER_10_11
*408 FILLER_10_125
*409 FILLER_10_137
*410 FILLER_10_14
*411 FILLER_10_144
*412 FILLER_10_152
*413 FILLER_10_161
*414 FILLER_10_170
*415 FILLER_10_200
*416 FILLER_10_3
*417 FILLER_10_32
*418 FILLER_10_92
*419 FILLER_11_125
*420 FILLER_11_151
*421 FILLER_11_174
*422 FILLER_11_178
*423 FILLER_11_201
*424 FILLER_11_25
*425 FILLER_11_27
*426 FILLER_11_46
*427 FILLER_11_66
*428 FILLER_11_79
*429 FILLER_11_83
*430 FILLER_12_11
*431 FILLER_12_116
*432 FILLER_12_134
*433 FILLER_12_139
*434 FILLER_12_14
*435 FILLER_12_170
*436 FILLER_12_196
*437 FILLER_12_22
*438 FILLER_12_25
*439 FILLER_12_3
*440 FILLER_12_40
*441 FILLER_12_60
*442 FILLER_12_66
*443 FILLER_13_101
*444 FILLER_13_105
*445 FILLER_13_131
*446 FILLER_13_143
*447 FILLER_13_178
*448 FILLER_13_183
*449 FILLER_13_195
*450 FILLER_13_201
*451 FILLER_13_31
*452 FILLER_13_39
*453 FILLER_13_43
*454 FILLER_13_53
*455 FILLER_13_68
*456 FILLER_13_76
*457 FILLER_13_79
*458 FILLER_13_89
*459 FILLER_14_11
*460 FILLER_14_115
*461 FILLER_14_118
*462 FILLER_14_122
*463 FILLER_14_14
*464 FILLER_14_144
*465 FILLER_14_148
*466 FILLER_14_166
*467 FILLER_14_18
*468 FILLER_14_196
*469 FILLER_14_22
*470 FILLER_14_3
*471 FILLER_14_37
*472 FILLER_14_40
*473 FILLER_14_52
*474 FILLER_14_56
*475 FILLER_14_61
*476 FILLER_14_74
*477 FILLER_14_78
*478 FILLER_14_84
*479 FILLER_15_105
*480 FILLER_15_134
*481 FILLER_15_148
*482 FILLER_15_155
*483 FILLER_15_157
*484 FILLER_15_183
*485 FILLER_15_195
*486 FILLER_15_31
*487 FILLER_15_50
*488 FILLER_15_79
*489 FILLER_15_83
*490 FILLER_15_88
*491 FILLER_16_11
*492 FILLER_16_114
*493 FILLER_16_139
*494 FILLER_16_170
*495 FILLER_16_196
*496 FILLER_16_3
*497 FILLER_16_35
*498 FILLER_16_40
*499 FILLER_16_53
*500 FILLER_16_63
*501 FILLER_16_66
*502 FILLER_16_90
*503 FILLER_16_92
*504 FILLER_17_102
*505 FILLER_17_105
*506 FILLER_17_131
*507 FILLER_17_157
*508 FILLER_17_191
*509 FILLER_17_199
*510 FILLER_17_40
*511 FILLER_17_50
*512 FILLER_17_53
*513 FILLER_17_60
*514 FILLER_17_72
*515 FILLER_18_11
*516 FILLER_18_142
*517 FILLER_18_144
*518 FILLER_18_166
*519 FILLER_18_196
*520 FILLER_18_3
*521 FILLER_18_35
*522 FILLER_18_56
*523 FILLER_18_64
*524 FILLER_18_87
*525 FILLER_19_101
*526 FILLER_19_11
*527 FILLER_19_116
*528 FILLER_19_127
*529 FILLER_19_14
*530 FILLER_19_140
*531 FILLER_19_155
*532 FILLER_19_160
*533 FILLER_19_167
*534 FILLER_19_178
*535 FILLER_19_188
*536 FILLER_19_192
*537 FILLER_19_20
*538 FILLER_19_27
*539 FILLER_19_3
*540 FILLER_19_37
*541 FILLER_19_47
*542 FILLER_19_51
*543 FILLER_19_53
*544 FILLER_19_66
*545 FILLER_19_86
*546 FILLER_1_114
*547 FILLER_1_122
*548 FILLER_1_129
*549 FILLER_1_15
*550 FILLER_1_157
*551 FILLER_1_183
*552 FILLER_1_194
*553 FILLER_1_23
*554 FILLER_1_3
*555 FILLER_1_85
*556 FILLER_1_97
*557 FILLER_2_11
*558 FILLER_2_113
*559 FILLER_2_138
*560 FILLER_2_14
*561 FILLER_2_142
*562 FILLER_2_144
*563 FILLER_2_148
*564 FILLER_2_156
*565 FILLER_2_170
*566 FILLER_2_18
*567 FILLER_2_196
*568 FILLER_2_3
*569 FILLER_2_48
*570 FILLER_2_66
*571 FILLER_2_90
*572 FILLER_3_102
*573 FILLER_3_111
*574 FILLER_3_117
*575 FILLER_3_125
*576 FILLER_3_131
*577 FILLER_3_157
*578 FILLER_3_192
*579 FILLER_3_200
*580 FILLER_3_25
*581 FILLER_3_41
*582 FILLER_3_53
*583 FILLER_3_62
*584 FILLER_3_84
*585 FILLER_3_92
*586 FILLER_4_11
*587 FILLER_4_127
*588 FILLER_4_139
*589 FILLER_4_14
*590 FILLER_4_144
*591 FILLER_4_156
*592 FILLER_4_196
*593 FILLER_4_3
*594 FILLER_4_37
*595 FILLER_4_40
*596 FILLER_4_7
*597 FILLER_4_70
*598 FILLER_4_80
*599 FILLER_4_88
*600 FILLER_5_103
*601 FILLER_5_112
*602 FILLER_5_119
*603 FILLER_5_181
*604 FILLER_5_183
*605 FILLER_5_195
*606 FILLER_5_201
*607 FILLER_5_25
*608 FILLER_5_27
*609 FILLER_5_44
*610 FILLER_5_53
*611 FILLER_5_94
*612 FILLER_5_99
*613 FILLER_6_107
*614 FILLER_6_115
*615 FILLER_6_12
*616 FILLER_6_127
*617 FILLER_6_14
*618 FILLER_6_166
*619 FILLER_6_170
*620 FILLER_6_200
*621 FILLER_6_28
*622 FILLER_6_3
*623 FILLER_6_32
*624 FILLER_6_38
*625 FILLER_6_40
*626 FILLER_6_52
*627 FILLER_6_60
*628 FILLER_6_66
*629 FILLER_6_77
*630 FILLER_6_80
*631 FILLER_6_88
*632 FILLER_7_114
*633 FILLER_7_120
*634 FILLER_7_124
*635 FILLER_7_131
*636 FILLER_7_137
*637 FILLER_7_148
*638 FILLER_7_183
*639 FILLER_7_195
*640 FILLER_7_46
*641 FILLER_7_74
*642 FILLER_7_88
*643 FILLER_8_103
*644 FILLER_8_11
*645 FILLER_8_115
*646 FILLER_8_14
*647 FILLER_8_168
*648 FILLER_8_196
*649 FILLER_8_26
*650 FILLER_8_3
*651 FILLER_8_30
*652 FILLER_8_38
*653 FILLER_8_61
*654 FILLER_8_81
*655 FILLER_8_89
*656 FILLER_8_92
*657 FILLER_9_102
*658 FILLER_9_107
*659 FILLER_9_118
*660 FILLER_9_126
*661 FILLER_9_151
*662 FILLER_9_155
*663 FILLER_9_157
*664 FILLER_9_183
*665 FILLER_9_195
*666 FILLER_9_29
*667 FILLER_9_3
*668 FILLER_9_33
*669 FILLER_9_37
*670 FILLER_9_40
*671 FILLER_9_44
*672 FILLER_9_53
*673 FILLER_9_61
*674 FILLER_9_66
*675 FILLER_9_74
*676 FILLER_9_79
*677 PHY_0
*678 PHY_1
*679 PHY_10
*680 PHY_11
*681 PHY_12
*682 PHY_13
*683 PHY_14
*684 PHY_15
*685 PHY_16
*686 PHY_17
*687 PHY_18
*688 PHY_19
*689 PHY_2
*690 PHY_20
*691 PHY_21
*692 PHY_22
*693 PHY_23
*694 PHY_24
*695 PHY_25
*696 PHY_26
*697 PHY_27
*698 PHY_28
*699 PHY_29
*700 PHY_3
*701 PHY_30
*702 PHY_31
*703 PHY_32
*704 PHY_33
*705 PHY_34
*706 PHY_35
*707 PHY_36
*708 PHY_37
*709 PHY_38
*710 PHY_39
*711 PHY_4
*712 PHY_5
*713 PHY_6
*714 PHY_7
*715 PHY_8
*716 PHY_9
*717 TAP_100
*718 TAP_101
*719 TAP_102
*720 TAP_103
*721 TAP_104
*722 TAP_105
*723 TAP_106
*724 TAP_107
*725 TAP_108
*726 TAP_109
*727 TAP_110
*728 TAP_111
*729 TAP_112
*730 TAP_113
*731 TAP_114
*732 TAP_115
*733 TAP_116
*734 TAP_117
*735 TAP_118
*736 TAP_119
*737 TAP_120
*738 TAP_121
*739 TAP_122
*740 TAP_123
*741 TAP_124
*742 TAP_125
*743 TAP_126
*744 TAP_127
*745 TAP_128
*746 TAP_129
*747 TAP_130
*748 TAP_131
*749 TAP_132
*750 TAP_133
*751 TAP_134
*752 TAP_135
*753 TAP_136
*754 TAP_137
*755 TAP_138
*756 TAP_139
*757 TAP_140
*758 TAP_141
*759 TAP_142
*760 TAP_143
*761 TAP_144
*762 TAP_145
*763 TAP_146
*764 TAP_147
*765 TAP_148
*766 TAP_149
*767 TAP_150
*768 TAP_151
*769 TAP_152
*770 TAP_153
*771 TAP_154
*772 TAP_155
*773 TAP_156
*774 TAP_157
*775 TAP_158
*776 TAP_159
*777 TAP_160
*778 TAP_161
*779 TAP_162
*780 TAP_163
*781 TAP_164
*782 TAP_165
*783 TAP_166
*784 TAP_167
*785 TAP_168
*786 TAP_169
*787 TAP_170
*788 TAP_171
*789 TAP_172
*790 TAP_173
*791 TAP_174
*792 TAP_175
*793 TAP_176
*794 TAP_177
*795 TAP_178
*796 TAP_179
*797 TAP_180
*798 TAP_181
*799 TAP_182
*800 TAP_183
*801 TAP_184
*802 TAP_185
*803 TAP_186
*804 TAP_187
*805 TAP_188
*806 TAP_189
*807 TAP_190
*808 TAP_191
*809 TAP_192
*810 TAP_193
*811 TAP_194
*812 TAP_195
*813 TAP_196
*814 TAP_197
*815 TAP_198
*816 TAP_199
*817 TAP_200
*818 TAP_201
*819 TAP_202
*820 TAP_203
*821 TAP_204
*822 TAP_40
*823 TAP_41
*824 TAP_42
*825 TAP_43
*826 TAP_44
*827 TAP_45
*828 TAP_46
*829 TAP_47
*830 TAP_48
*831 TAP_49
*832 TAP_50
*833 TAP_51
*834 TAP_52
*835 TAP_53
*836 TAP_54
*837 TAP_55
*838 TAP_56
*839 TAP_57
*840 TAP_58
*841 TAP_59
*842 TAP_60
*843 TAP_61
*844 TAP_62
*845 TAP_63
*846 TAP_64
*847 TAP_65
*848 TAP_66
*849 TAP_67
*850 TAP_68
*851 TAP_69
*852 TAP_70
*853 TAP_71
*854 TAP_72
*855 TAP_73
*856 TAP_74
*857 TAP_75
*858 TAP_76
*859 TAP_77
*860 TAP_78
*861 TAP_79
*862 TAP_80
*863 TAP_81
*864 TAP_82
*865 TAP_83
*866 TAP_84
*867 TAP_85
*868 TAP_86
*869 TAP_87
*870 TAP_88
*871 TAP_89
*872 TAP_90
*873 TAP_91
*874 TAP_92
*875 TAP_93
*876 TAP_94
*877 TAP_95
*878 TAP_96
*879 TAP_97
*880 TAP_98
*881 TAP_99
*882 _204_
*883 _205_
*884 _206_
*885 _207_
*886 _208_
*887 _209_
*888 _210_
*889 _211_
*890 _212_
*891 _213_
*892 _214_
*893 _215_
*894 _216_
*895 _217_
*896 _218_
*897 _219_
*898 _220_
*899 _221_
*900 _222_
*901 _223_
*902 _224_
*903 _225_
*904 _226_
*905 _227_
*906 _228_
*907 _229_
*908 _230_
*909 _231_
*910 _232_
*911 _233_
*912 _234_
*913 _235_
*914 _236_
*915 _237_
*916 _238_
*917 _239__1
*918 _240_
*919 _241_
*920 _242_
*921 _243_
*922 _244__2
*923 _245_
*924 _246_
*925 _247_
*926 _248_
*927 _249_
*928 _250_
*929 _251_
*930 _252_
*931 _253_
*932 _254_
*933 _255_
*934 _256_
*935 _257_
*936 _258__3
*937 _259_
*938 _260_
*939 _261_
*940 _262_
*941 _263_
*942 _264_
*943 _265_
*944 _266_
*945 _267_
*946 _268_
*947 _269_
*948 _270_
*949 _271_
*950 _272_
*951 _273_
*952 _274_
*953 _275_
*954 _276_
*955 _277_
*956 _278_
*957 _279_
*958 _280_
*959 _281_
*960 _282_
*961 _283_
*962 _284_
*963 _285_
*964 _286_
*965 _287_
*966 _288_
*967 _289_
*968 _290_
*969 _291_
*970 _292_
*971 _293_
*972 _294_
*973 _295_
*974 _296_
*975 _297_
*976 _298__4
*977 _299_
*978 _300_
*979 _301_
*980 _302__5
*981 _303_
*982 _304_
*983 _305_
*984 _306_
*985 _307_
*986 _308_
*987 _309_
*988 _310_
*989 _311_
*990 _312_
*991 _313_
*992 _314_
*993 _315_
*994 _316_
*995 _317_
*996 _318_
*997 _319_
*998 _320_
*999 _321_
*1000 _322_
*1001 _323_
*1002 _324_
*1003 _325_
*1004 _326_
*1005 _327_
*1006 _328_
*1007 _329_
*1008 _330__6
*1009 _331_
*1010 _332_
*1011 _333_
*1012 _334_
*1013 _335_
*1014 _336_
*1015 _337_
*1016 _338_
*1017 _339_
*1018 _340__9
*1019 _341__8
*1020 _342__7
*1021 _343_
*1022 _344_
*1023 _345_
*1024 _346_
*1025 _347_
*1026 _348_
*1027 _349_
*1028 _350_
*1029 _351_
*1030 _352_
*1031 _353_
*1032 _354_
*1033 _355_
*1034 _356_
*1035 _357_
*1036 _358_
*1037 _359_
*1038 _360_
*1039 _361_
*1040 _362_
*1041 _363_
*1042 _364_
*1043 _365_
*1044 _366_
*1045 _367_
*1046 _368_
*1047 _369_
*1048 _370_
*1049 _371_
*1050 _372_
*1051 _373_
*1052 _374_
*1053 _375_
*1054 _376_
*1055 _377_
*1056 _378__13
*1057 _379_
*1058 _380_
*1059 _381_
*1060 _382_
*1061 _383_
*1062 _384_
*1063 _385_
*1064 _386_
*1065 _387_
*1066 _388_
*1067 _389_
*1068 _390_
*1069 _391_
*1070 _392_
*1071 _393_
*1072 _394_
*1073 _395_
*1074 _396_
*1075 _397_
*1076 _398_
*1077 _399_
*1078 _400_
*1079 _401_
*1080 _402_
*1081 _403_
*1082 _404_
*1083 _405_
*1084 _406_
*1085 _407_
*1086 _408_
*1087 _409_
*1088 _410_
*1089 _411_
*1090 _412_
*1091 _413_
*1092 _414_
*1093 _415_
*1094 _416_
*1095 _417_
*1096 _418_
*1097 _419_
*1098 _420_
*1099 _421_
*1100 _422_
*1101 _423_
*1102 _424_
*1103 _425_
*1104 _426_
*1105 _427_
*1106 _428_
*1107 _429_
*1108 _430_
*1109 _431_
*1110 _432_
*1111 _433_
*1112 _434_
*1113 _435_
*1114 _436_
*1115 _437_
*1116 _438_
*1117 _439_
*1118 _440_
*1119 _441_
*1120 _442_
*1121 _443_
*1122 _444_
*1123 _445_
*1124 _446_
*1125 _447_
*1126 _448_
*1127 _449_
*1128 _450_
*1129 _451_
*1130 _452_
*1131 _453_
*1132 _454_
*1133 _455_
*1134 _456_
*1135 _457_
*1136 _458_
*1137 _459_
*1138 _460_
*1139 _461_
*1140 _462_
*1141 _463_
*1142 _464_
*1143 _465_
*1144 _466_
*1145 _467_
*1146 _468_
*1147 _469_
*1148 _470_
*1149 clkbuf_0_ext_clk
*1150 clkbuf_0_pll_clk
*1151 clkbuf_0_pll_clk90
*1152 clkbuf_1_0_0_ext_clk
*1153 clkbuf_1_0_0_pll_clk
*1154 clkbuf_1_0_0_pll_clk90
*1155 clkbuf_1_1_0_ext_clk
*1156 clkbuf_1_1_0_pll_clk
*1157 clkbuf_1_1_0_pll_clk90
*1158 hold1
*1159 hold2
*1160 hold3
*1161 input1
*1162 input2
*1163 input3
*1164 input4
*1165 input5
*1166 input6
*1167 input7
*1168 input8
*1169 input9
*1170 output10
*1171 output11
*1172 output12
*1173 rebuffer5
*1174 rebuffer6
*1175 split4

*PORTS
core_clk O
ext_clk I
ext_clk_sel I
ext_reset I
pll_clk I
pll_clk90 I
resetb I
resetb_sync O
sel2[0] I
sel2[1] I
sel2[2] I
sel[0] I
sel[1] I
sel[2] I
user_clk O

*D_NET *3 0.000414444
*CONN
*P core_clk O
*I *1170:X O *D sky130_fd_sc_hd__clkbuf_1
*CAP
1 core_clk 0.000195155
2 *1170:X 0.000195155
3 core_clk *296:384 2.41338e-05
*RES
1 *1170:X core_clk 17.8118 
*END

*D_NET *4 0.00970762
*CONN
*P ext_clk I
*I *1149:A I *D sky130_fd_sc_hd__clkbuf_16
*I *373:DIODE I *D sky130_fd_sc_hd__diode_2
*CAP
1 ext_clk 0.000652163
2 *1149:A 0.000507259
3 *373:DIODE 0
4 *4:11 0.00288435
5 *4:7 0.00302926
6 *1149:A *1104:RESET_B 3.52807e-05
7 *1149:A *1104:CLK 0.000117983
8 *1149:A *1152:A 6.94887e-05
9 *1149:A *114:67 8.32204e-06
10 *1149:A *219:34 8.31548e-05
11 *4:7 *937:B 9.82083e-05
12 *4:7 *1043:B 0.000227188
13 *4:7 *1045:A 0.000185026
14 *4:7 *1061:A1 0.000111356
15 *4:7 *1061:S 7.77711e-06
16 *4:7 *1073:A0 0.000115998
17 *4:7 *1073:A1 8.72115e-06
18 *4:7 *1074:A0 7.26606e-05
19 *4:7 *248:92 0
20 *4:7 *255:18 5.80109e-06
21 *4:7 *256:16 0.000139684
22 *4:7 *296:922 0
23 *4:11 *893:A2 6.08467e-05
24 *4:11 *896:A1 0.000119972
25 *4:11 *1095:D 0
26 *4:11 *1145:D 1.15273e-05
27 *4:11 *1154:A 0.000119497
28 *4:11 *114:67 0.000239209
29 *4:11 *219:34 0.000168944
30 *4:11 *247:56 0.000173071
31 *4:11 *248:65 0.000278641
32 *4:11 *248:69 1.5613e-05
33 *4:11 *249:77 0.000160617
*RES
1 ext_clk *4:7 23.8947 
2 *4:7 *4:11 46.0058 
3 *4:11 *373:DIODE 13.7491 
4 *4:11 *1149:A 24.9919 
*END

*D_NET *5 0.000628952
*CONN
*P ext_clk_sel I
*I *1161:A I *D sky130_fd_sc_hd__clkbuf_1
*I *376:DIODE I *D sky130_fd_sc_hd__diode_2
*CAP
1 ext_clk_sel 0.000232601
2 *1161:A 0
3 *376:DIODE 6.6126e-05
4 *5:10 0.000298727
5 *376:DIODE *1052:A 3.14978e-05
6 *5:10 *1033:A 0
*RES
1 ext_clk_sel *5:10 9.41425 
2 *5:10 *376:DIODE 11.0817 
3 *5:10 *1161:A 9.24915 
*END

*D_NET *6 0.00133551
*CONN
*P ext_reset I
*I *377:DIODE I *D sky130_fd_sc_hd__diode_2
*I *1162:A I *D sky130_fd_sc_hd__clkbuf_1
*CAP
1 ext_reset 0.000358962
2 *377:DIODE 0.00016272
3 *1162:A 0
4 *6:11 0.000521682
5 *377:DIODE *1053:A 6.94431e-05
6 *377:DIODE *1171:A 0.00016386
7 *6:11 *8:7 5.88434e-05
*RES
1 ext_reset *6:11 13.9241 
2 *6:11 *1162:A 9.24915 
3 *6:11 *377:DIODE 13.8789 
*END

*D_NET *7 0.0106994
*CONN
*P pll_clk I
*I *1150:A I *D sky130_fd_sc_hd__clkbuf_16
*I *375:DIODE I *D sky130_fd_sc_hd__diode_2
*CAP
1 pll_clk 0.00149194
2 *1150:A 0.000187102
3 *375:DIODE 5.76526e-05
4 *7:18 0.00231997
5 *7:15 0.00356716
6 *375:DIODE *213:10 0
7 *375:DIODE *219:14 1.03594e-05
8 *375:DIODE *219:34 2.41266e-05
9 *1150:A *898:A 7.73683e-05
10 *1150:A *905:C 3.06627e-05
11 *1150:A *115:49 0.000161234
12 *1150:A *213:10 0
13 *1150:A *219:34 8.60716e-05
14 *1150:A *258:13 6.53173e-05
15 *1150:A *259:8 0.00013262
16 *7:15 *1088:A1 2.83365e-05
17 *7:15 *1100:D 0.000301269
18 *7:15 *1114:D 0
19 *7:15 *1115:D 0
20 *7:15 *1159:A 2.82255e-05
21 *7:15 *243:66 0
22 *7:15 *296:502 4.7392e-05
23 *7:15 *296:504 7.11402e-05
24 *7:15 *296:509 4.07982e-05
25 *7:15 *296:514 0
26 *7:15 *296:516 0
27 *7:18 *1143:RESET_B 0.00107064
28 *7:18 *220:40 0.000670736
29 *7:18 *220:52 0.000205985
30 *7:18 *257:33 2.32766e-05
*RES
1 pll_clk *7:15 43.2894 
2 *7:15 *7:18 38.4996 
3 *7:18 *375:DIODE 15.1659 
4 *7:18 *1150:A 20.7358 
*END

*D_NET *8 0.0096965
*CONN
*P pll_clk90 I
*I *1151:A I *D sky130_fd_sc_hd__clkbuf_16
*I *374:DIODE I *D sky130_fd_sc_hd__diode_2
*CAP
1 pll_clk90 0.000968684
2 *1151:A 9.43315e-05
3 *374:DIODE 3.58463e-05
4 *8:12 0.00113539
5 *8:10 0.00262763
6 *8:7 0.0025911
7 *374:DIODE *898:A 2.16355e-05
8 *1151:A *898:B 2.76794e-05
9 *1151:A *1067:S 0.000158637
10 *1151:A *115:49 5.03545e-06
11 *1151:A *257:36 5.1674e-06
12 *8:7 *1065:A0 0
13 *8:7 *12:11 8.90248e-05
14 *8:7 *13:11 0.000110265
15 *8:7 *299:13 6.53429e-05
16 *8:10 *1133:D 0.000224072
17 *8:12 *898:A 5.04829e-06
18 *8:12 *903:B1_N 2.30636e-05
19 *8:12 *946:A1 9.94284e-06
20 *8:12 *946:A2 2.64497e-05
21 *8:12 *946:B1 0.000138632
22 *8:12 *947:A 0.000162401
23 *8:12 *1032:B1 0.000387937
24 *8:12 *1157:A 7.67734e-06
25 *8:12 *111:11 0.000290087
26 *8:12 *115:61 0.000212898
27 *8:12 *139:18 0.000213676
28 *6:11 *8:7 5.88434e-05
*RES
1 pll_clk90 *8:7 29.293 
2 *8:7 *8:10 24.0409 
3 *8:10 *8:12 26.7898 
4 *8:12 *374:DIODE 9.97254 
5 *8:12 *1151:A 21.3269 
*END

*D_NET *9 0.00130008
*CONN
*P resetb I
*I *378:DIODE I *D sky130_fd_sc_hd__diode_2
*I *1163:A I *D sky130_fd_sc_hd__buf_12
*CAP
1 resetb 0.000500731
2 *378:DIODE 0
3 *1163:A 8.78203e-05
4 *9:5 0.000588551
5 *1163:A *1136:RESET_B 0
6 *1163:A *296:6 0
7 *9:5 *1135:CLK 0.000122978
8 *9:5 *1136:RESET_B 0
*RES
1 resetb *9:5 12.7507 
2 *9:5 *1163:A 15.8893 
3 *9:5 *378:DIODE 13.7491 
*END

*D_NET *10 0.00163647
*CONN
*P resetb_sync O
*I *1171:X O *D sky130_fd_sc_hd__buf_2
*CAP
1 resetb_sync 0.000541656
2 *1171:X 0.000541656
3 resetb_sync *276:27 0.000511867
4 resetb_sync *276:31 4.12914e-05
*RES
1 *1171:X resetb_sync 23.9124 
*END

*D_NET *11 0.000696326
*CONN
*P sel2[0] I
*I *1164:A I *D sky130_fd_sc_hd__clkbuf_1
*I *379:DIODE I *D sky130_fd_sc_hd__diode_2
*CAP
1 sel2[0] 0.000236166
2 *1164:A 0
3 *379:DIODE 7.67971e-05
4 *11:10 0.000312963
5 *379:DIODE *1065:S 6.27718e-05
6 *11:10 *1065:S 7.6276e-06
*RES
1 sel2[0] *11:10 8.999 
2 *11:10 *379:DIODE 11.0817 
3 *11:10 *1164:A 9.24915 
*END

*D_NET *12 0.000893372
*CONN
*P sel2[1] I
*I *1165:A I *D sky130_fd_sc_hd__clkbuf_1
*I *380:DIODE I *D sky130_fd_sc_hd__diode_2
*CAP
1 sel2[1] 0.000279846
2 *1165:A 0
3 *380:DIODE 8.76059e-05
4 *12:11 0.000367452
5 *380:DIODE *1112:D 6.94431e-05
6 *8:7 *12:11 8.90248e-05
*RES
1 sel2[1] *12:11 10.8917 
2 *12:11 *380:DIODE 11.6605 
3 *12:11 *1165:A 9.24915 
*END

*D_NET *13 0.000880133
*CONN
*P sel2[2] I
*I *1166:A I *D sky130_fd_sc_hd__clkbuf_1
*I *381:DIODE I *D sky130_fd_sc_hd__diode_2
*CAP
1 sel2[2] 0.000298504
2 *1166:A 0
3 *381:DIODE 8.64303e-05
4 *13:11 0.000384934
5 *8:7 *13:11 0.000110265
*RES
1 sel2[2] *13:11 11.3069 
2 *13:11 *381:DIODE 11.0817 
3 *13:11 *1166:A 9.24915 
*END

*D_NET *14 0.000744733
*CONN
*P sel[0] I
*I *1167:A I *D sky130_fd_sc_hd__clkbuf_1
*I *382:DIODE I *D sky130_fd_sc_hd__diode_2
*CAP
1 sel[0] 0.000272618
2 *1167:A 0
3 *382:DIODE 6.51134e-05
4 *14:10 0.000337731
5 *382:DIODE *300:19 6.92705e-05
6 *14:10 *303:8 0
*RES
1 sel[0] *14:10 9.8295 
2 *14:10 *382:DIODE 11.0817 
3 *14:10 *1167:A 9.24915 
*END

*D_NET *15 0.000847595
*CONN
*P sel[1] I
*I *1168:A I *D sky130_fd_sc_hd__clkbuf_1
*I *383:DIODE I *D sky130_fd_sc_hd__diode_2
*CAP
1 sel[1] 0.000319607
2 *1168:A 0
3 *383:DIODE 7.185e-05
4 *15:10 0.000391457
5 *383:DIODE *1106:D 6.46815e-05
6 *15:10 *303:8 0
*RES
1 sel[1] *15:10 11.0753 
2 *15:10 *383:DIODE 11.0817 
3 *15:10 *1168:A 9.24915 
*END

*D_NET *16 0.000672771
*CONN
*P sel[2] I
*I *1169:A I *D sky130_fd_sc_hd__clkbuf_1
*I *384:DIODE I *D sky130_fd_sc_hd__diode_2
*CAP
1 sel[2] 0.000234973
2 *1169:A 0
3 *384:DIODE 6.9072e-05
4 *16:10 0.000304045
5 *384:DIODE *1107:D 6.46815e-05
*RES
1 sel[2] *16:10 8.999 
2 *16:10 *384:DIODE 11.0817 
3 *16:10 *1169:A 9.24915 
*END

*D_NET *17 0.000828249
*CONN
*P user_clk O
*I *1172:X O *D sky130_fd_sc_hd__clkbuf_1
*CAP
1 user_clk 0.000282606
2 *1172:X 0.000282606
3 user_clk *1170:A 0.000263038
*RES
1 *1172:X user_clk 19.4756 
*END

*D_NET *18 0.0086644
*CONN
*I *896:B1 I *D sky130_fd_sc_hd__o21a_1
*I *906:A2 I *D sky130_fd_sc_hd__a21bo_1
*I *908:A2 I *D sky130_fd_sc_hd__a21bo_1
*I *1068:A0 I *D sky130_fd_sc_hd__mux2_1
*I *910:A2 I *D sky130_fd_sc_hd__a21bo_1
*I *895:Y O *D sky130_fd_sc_hd__nand2_2
*CAP
1 *896:B1 0.00020484
2 *906:A2 0.000808625
3 *908:A2 5.76923e-05
4 *1068:A0 0.000253677
5 *910:A2 0
6 *895:Y 5.43193e-05
7 *18:43 0.00130106
8 *18:31 0.000513015
9 *18:20 0.000518049
10 *18:7 0.00015096
11 *896:B1 *369:DIODE 8.65271e-05
12 *896:B1 *1098:CLK 0
13 *896:B1 *1154:A 2.73793e-05
14 *896:B1 *214:8 2.4433e-05
15 *896:B1 *248:46 0
16 *896:B1 *268:25 0.000125972
17 *906:A2 *369:DIODE 0.000245977
18 *906:A2 *906:A1 0.00016553
19 *906:A2 *906:B1_N 1.15389e-05
20 *906:A2 *1048:A 0.000186609
21 *906:A2 *1067:A1 0.000157441
22 *906:A2 *1143:D 4.97617e-05
23 *906:A2 *213:10 0.000532383
24 *906:A2 *220:26 0.00016553
25 *906:A2 *258:13 0.000751992
26 *906:A2 *268:25 2.75449e-05
27 *908:A2 *907:C 0.000110297
28 *908:A2 *908:A1 6.08467e-05
29 *1068:A0 *908:B1_N 3.18748e-06
30 *1068:A0 *1068:S 6.19496e-05
31 *1068:A0 *247:76 8.95297e-05
32 *1068:A0 *268:93 0.000171677
33 *18:7 *895:B 0
34 *18:7 *109:42 0.000110458
35 *18:7 *247:68 0.000161956
36 *18:20 *910:A1 1.50924e-05
37 *18:20 *910:B1_N 0.000122858
38 *18:20 *109:42 7.74679e-05
39 *18:20 *247:68 1.60442e-05
40 *18:31 *907:C 7.31592e-05
41 *18:31 *908:B1_N 5.03013e-06
42 *18:43 *907:C 1.37939e-05
43 *18:43 *908:A1 0.000448783
44 *18:43 *1047:A 1.88014e-05
45 *18:43 *249:38 0.000358496
46 *18:43 *268:25 0.000263272
47 *18:43 *268:43 6.08467e-05
*RES
1 *895:Y *18:7 11.6605 
2 *18:7 *910:A2 9.24915 
3 *18:7 *18:20 12.5494 
4 *18:20 *1068:A0 24.8233 
5 *18:20 *18:31 4.05102 
6 *18:31 *908:A2 11.5158 
7 *18:31 *18:43 14.6517 
8 *18:43 *906:A2 37.7544 
9 *18:43 *896:B1 19.7337 
*END

*D_NET *19 0.0107405
*CONN
*I *1075:A0 I *D sky130_fd_sc_hd__mux2_4
*I *963:A2 I *D sky130_fd_sc_hd__a21bo_1
*I *1003:B1 I *D sky130_fd_sc_hd__o21a_1
*I *967:A2 I *D sky130_fd_sc_hd__a21bo_1
*I *965:A2 I *D sky130_fd_sc_hd__a21bo_1
*I *961:Y O *D sky130_fd_sc_hd__nand2_2
*CAP
1 *1075:A0 0
2 *963:A2 0
3 *1003:B1 0.00159777
4 *967:A2 0
5 *965:A2 0.000468366
6 *961:Y 3.76438e-05
7 *19:45 0.00246862
8 *19:17 0.000615052
9 *19:10 0.00110961
10 *19:5 0.000129713
11 *965:A2 *964:A 6.23779e-05
12 *965:A2 *1080:A1 0.000114659
13 *965:A2 *1089:A0 6.3657e-05
14 *965:A2 *1130:D 0.000141654
15 *965:A2 *216:13 2.04806e-05
16 *1003:B1 *949:A 0.000455159
17 *1003:B1 *962:A 3.44412e-06
18 *1003:B1 *963:A1 1.91246e-05
19 *1003:B1 *1002:A1 0.000114594
20 *1003:B1 *1002:A2 6.3657e-05
21 *1003:B1 *1003:A2 0.000167434
22 *1003:B1 *1029:A1 1.48597e-05
23 *1003:B1 *147:7 6.66272e-05
24 *1003:B1 *152:35 8.03035e-05
25 *1003:B1 *219:71 1.5714e-05
26 *1003:B1 *221:71 0.000528665
27 *1003:B1 *221:85 4.70264e-05
28 *1003:B1 *233:10 0
29 *19:5 *1075:S 0.000275256
30 *19:5 *154:11 0.000115615
31 *19:10 *970:A1 1.07248e-05
32 *19:10 *221:131 0.000315611
33 *19:10 *242:44 0.000322551
34 *19:17 *967:A1 0.000168313
35 *19:17 *152:13 0.000378954
36 *19:17 *242:41 1.50924e-05
37 *19:45 *321:DIODE 6.93171e-05
38 *19:45 *949:B 3.31813e-05
39 *19:45 *962:A 3.13805e-06
40 *19:45 *152:10 2.15326e-05
41 *19:45 *231:24 0.000462984
42 *19:45 *242:37 0.000104639
43 *19:45 *242:41 3.74146e-05
*RES
1 *961:Y *19:5 12.191 
2 *19:5 *19:10 14.5693 
3 *19:10 *19:17 5.93185 
4 *19:17 *965:A2 30.0134 
5 *19:17 *967:A2 9.24915 
6 *19:10 *19:45 24.9113 
7 *19:45 *1003:B1 32.7892 
8 *19:45 *963:A2 9.24915 
9 *19:5 *1075:A0 9.24915 
*END

*D_NET *20 0.00179215
*CONN
*I *919:B I *D sky130_fd_sc_hd__and2b_1
*I *911:C_N I *D sky130_fd_sc_hd__nor3b_1
*I *914:A I *D sky130_fd_sc_hd__inv_2
*I *1068:X O *D sky130_fd_sc_hd__mux2_1
*CAP
1 *919:B 0.000199434
2 *911:C_N 5.14545e-05
3 *914:A 0
4 *1068:X 0.000226688
5 *20:15 0.000413621
6 *20:7 0.000389421
7 *911:C_N *911:A 5.75336e-05
8 *911:C_N *915:A2 9.94284e-06
9 *911:C_N *916:B1 0.000161234
10 *919:B *920:B1 7.71526e-05
11 *919:B *268:56 1.91246e-05
12 *919:B *268:73 1.66626e-05
13 *20:15 *915:A2 1.19705e-05
14 *20:15 *916:B1 0.000110458
15 *20:15 *921:A1 2.41916e-05
16 *20:15 *123:5 2.32594e-05
*RES
1 *1068:X *20:7 14.8434 
2 *20:7 *914:A 9.24915 
3 *20:7 *20:15 4.62973 
4 *20:15 *911:C_N 11.6605 
5 *20:15 *919:B 23.0612 
*END

*D_NET *21 0.00125
*CONN
*I *1174:A I *D sky130_fd_sc_hd__buf_2
*I *971:C I *D sky130_fd_sc_hd__nand3b_1
*I *1075:X O *D sky130_fd_sc_hd__mux2_4
*CAP
1 *1174:A 0.000166368
2 *971:C 0.000167448
3 *1075:X 0
4 *21:4 0.000333816