*SPEF "ieee 1481-1999"
*DESIGN "caravel_clocking"
*DATE "11:11:11 Fri 11 11, 1111"
*VENDOR "OpenRCX"
*PROGRAM "Parallel Extraction"
*VERSION "1.0"
*DESIGN_FLOW "NAME_SCOPE LOCAL" "PIN_CAP NONE"
*DIVIDER /
*DELIMITER :
*BUS_DELIMITER []
*T_UNIT 1 NS
*C_UNIT 1 PF
*R_UNIT 1 OHM
*L_UNIT 1 HENRY

*NAME_MAP
*3 core_clk
*4 ext_clk
*5 ext_clk_sel
*6 ext_reset
*7 pll_clk
*8 pll_clk90
*9 resetb
*10 resetb_sync
*11 sel2[0]
*12 sel2[1]
*13 sel2[2]
*14 sel[0]
*15 sel[1]
*16 sel[2]
*17 user_clk
*18 _000_
*19 _001_
*20 _002_
*21 _003_
*22 _004_
*23 _005_
*24 _006_
*25 _007_
*26 _008_
*27 _009_
*28 _010_
*29 _011_
*30 _012_
*31 _013_
*32 _014_
*33 _015_
*34 _016_
*35 _017_
*36 _018_
*37 _019_
*38 _020_
*39 _021_
*40 _022_
*41 _023_
*42 _024_
*43 _025_
*44 _026_
*45 _027_
*46 _028_
*47 _029_
*48 _030_
*49 _031_
*50 _032_
*51 _033_
*52 _034_
*53 _035_
*54 _036_
*55 _037_
*56 _038_
*57 _039_
*58 _040_
*59 _041_
*60 _042_
*61 _043_
*62 _044_
*63 _045_
*64 _046_
*65 _047_
*66 _057_
*67 _058_
*68 _059_
*69 _060_
*70 _061_
*71 _062_
*72 _063_
*73 _064_
*74 _065_
*75 _066_
*76 _067_
*77 _068_
*78 _069_
*79 _070_
*80 _071_
*81 _072_
*82 _073_
*83 _074_
*84 _075_
*85 _076_
*86 _077_
*87 _078_
*88 _079_
*89 _080_
*90 _081_
*91 _082_
*92 _083_
*93 _084_
*94 _085_
*95 _086_
*96 _087_
*97 _088_
*98 _089_
*99 _090_
*100 _091_
*101 _092_
*102 _093_
*103 _094_
*104 _095_
*105 _096_
*106 _097_
*107 _098_
*108 _099_
*109 _100_
*110 _101_
*111 _102_
*112 _103_
*113 _104_
*114 _105_
*115 _106_
*116 _107_
*117 _108_
*118 _109_
*119 _110_
*120 _111_
*121 _112_
*122 _113_
*123 _114_
*124 _115_
*125 _116_
*126 _117_
*127 _118_
*128 _119_
*129 _120_
*130 _121_
*131 _122_
*132 _123_
*133 _124_
*134 _125_
*135 _126_
*136 _127_
*137 _128_
*138 _129_
*139 _130_
*140 _131_
*141 _132_
*142 _133_
*143 _134_
*144 _135_
*145 _136_
*146 _137_
*147 _138_
*148 _139_
*149 _140_
*150 _141_
*151 _142_
*152 _143_
*153 _144_
*154 _145_
*155 _146_
*156 _147_
*157 _148_
*158 _149_
*159 _150_
*160 _151_
*161 _152_
*162 _153_
*163 _154_
*164 _155_
*165 _156_
*166 _157_
*167 _158_
*168 _159_
*169 _160_
*170 _161_
*171 _162_
*172 _163_
*173 _164_
*174 _165_
*175 _166_
*176 _167_
*177 _168_
*178 _169_
*179 _170_
*180 _171_
*181 _172_
*182 _173_
*183 _174_
*184 _175_
*185 _176_
*186 _177_
*187 _178_
*188 _179_
*189 _180_
*190 _181_
*191 _182_
*192 _183_
*193 _184_
*194 _185_
*195 _186_
*196 _187_
*197 _188_
*198 _189_
*199 _190_
*200 _191_
*201 _192_
*202 _193_
*203 _194_
*204 _195_
*205 _196_
*206 _197_
*207 _198_
*208 _199_
*209 _200_
*210 _201_
*211 _202_
*212 _203_
*213 _204_
*214 _205_
*215 clknet_0_ext_clk
*216 clknet_0_pll_clk
*217 clknet_0_pll_clk90
*218 clknet_1_0_0_ext_clk
*219 clknet_1_0_0_pll_clk
*220 clknet_1_0_0_pll_clk90
*221 clknet_1_1_0_ext_clk
*222 clknet_1_1_0_pll_clk
*223 clknet_1_1_0_pll_clk90
*224 divider\.even_0\.N\[0\]
*225 divider\.even_0\.N\[1\]
*226 divider\.even_0\.N\[2\]
*227 divider\.even_0\.counter\[0\]
*228 divider\.even_0\.counter\[1\]
*229 divider\.even_0\.counter\[2\]
*230 divider\.even_0\.out_counter
*231 divider\.odd_0\.counter2\[0\]
*232 divider\.odd_0\.counter2\[1\]
*233 divider\.odd_0\.counter2\[2\]
*234 divider\.odd_0\.counter\[0\]
*235 divider\.odd_0\.counter\[1\]
*236 divider\.odd_0\.counter\[2\]
*237 divider\.odd_0\.initial_begin\[0\]
*238 divider\.odd_0\.initial_begin\[1\]
*239 divider\.odd_0\.initial_begin\[2\]
*240 divider\.odd_0\.old_N\[0\]
*241 divider\.odd_0\.old_N\[1\]
*242 divider\.odd_0\.old_N\[2\]
*243 divider\.odd_0\.out_counter
*244 divider\.odd_0\.out_counter2
*245 divider\.odd_0\.rst_pulse
*246 divider\.out
*247 divider\.syncNp\[0\]
*248 divider\.syncNp\[1\]
*249 divider\.syncNp\[2\]
*250 divider2\.even_0\.N\[0\]
*251 divider2\.even_0\.N\[1\]
*252 divider2\.even_0\.N\[2\]
*253 divider2\.even_0\.counter\[0\]
*254 divider2\.even_0\.counter\[1\]
*255 divider2\.even_0\.counter\[2\]
*256 divider2\.even_0\.out_counter
*257 divider2\.odd_0\.counter2\[0\]
*258 divider2\.odd_0\.counter2\[1\]
*259 divider2\.odd_0\.counter2\[2\]
*260 divider2\.odd_0\.counter\[0\]
*261 divider2\.odd_0\.counter\[1\]
*262 divider2\.odd_0\.counter\[2\]
*263 divider2\.odd_0\.initial_begin\[0\]
*264 divider2\.odd_0\.initial_begin\[1\]
*265 divider2\.odd_0\.initial_begin\[2\]
*266 divider2\.odd_0\.old_N\[0\]
*267 divider2\.odd_0\.old_N\[1\]
*268 divider2\.odd_0\.old_N\[2\]
*269 divider2\.odd_0\.out_counter
*270 divider2\.odd_0\.out_counter2
*271 divider2\.odd_0\.rst_pulse
*272 divider2\.out
*273 divider2\.syncNp\[0\]
*274 divider2\.syncNp\[1\]
*275 divider2\.syncNp\[2\]
*276 ext_clk_syncd
*277 ext_clk_syncd_pre
*278 net1
*279 net10
*280 net11
*281 net12
*282 net13
*283 net14
*284 net15
*285 net16
*286 net17
*287 net18
*288 net19
*289 net2
*290 net20
*291 net21
*292 net22
*293 net23
*294 net24
*295 net25
*296 net26
*297 net3
*298 net4
*299 net5
*300 net6
*301 net7
*302 net8
*303 net9
*304 pll_clk_sel
*305 reset_delay\[0\]
*306 reset_delay\[1\]
*307 reset_delay\[2\]
*308 use_pll_first
*309 use_pll_second
*310 ANTENNA__349__S
*311 ANTENNA__427__SET_B
*312 ANTENNA__428__SET_B
*313 ANTENNA__429__SET_B
*314 ANTENNA__430__RESET_B
*315 ANTENNA__431__RESET_B
*316 ANTENNA__432__RESET_B
*317 ANTENNA__433__RESET_B
*318 ANTENNA__434__SET_B
*319 ANTENNA__435__RESET_B
*320 ANTENNA__436__RESET_B
*321 ANTENNA__437__SET_B
*322 ANTENNA__438__RESET_B
*323 ANTENNA__439__RESET_B
*324 ANTENNA__440__SET_B
*325 ANTENNA__441__RESET_B
*326 ANTENNA__442__RESET_B
*327 ANTENNA__443__SET_B
*328 ANTENNA__444__RESET_B
*329 ANTENNA__445__SET_B
*330 ANTENNA__446__RESET_B
*331 ANTENNA__447__SET_B
*332 ANTENNA__448__RESET_B
*333 ANTENNA__449__RESET_B
*334 ANTENNA__450__SET_B
*335 ANTENNA__451__RESET_B
*336 ANTENNA__452__RESET_B
*337 ANTENNA__453__SET_B
*338 ANTENNA__454__RESET_B
*339 ANTENNA__455__SET_B
*340 ANTENNA__456__RESET_B
*341 ANTENNA__457__RESET_B
*342 ANTENNA__458__SET_B
*343 ANTENNA__459__RESET_B
*344 ANTENNA__460__SET_B
*345 ANTENNA__461__SET_B
*346 ANTENNA__462__RESET_B
*347 ANTENNA__463__SET_B
*348 ANTENNA__464__RESET_B
*349 ANTENNA__465__SET_B
*350 ANTENNA__466__RESET_B
*351 ANTENNA__467__SET_B
*352 ANTENNA__468__RESET_B
*353 ANTENNA__469__RESET_B
*354 ANTENNA__470__SET_B
*355 ANTENNA__471__RESET_B
*356 ANTENNA__472__SET_B
*357 ANTENNA__473__RESET_B
*358 ANTENNA__474__SET_B
*359 ANTENNA__475__RESET_B
*360 ANTENNA__476__RESET_B
*361 ANTENNA_clkbuf_0_ext_clk_A
*362 ANTENNA_clkbuf_0_pll_clk90_A
*363 ANTENNA_clkbuf_0_pll_clk_A
*364 ANTENNA_input1_A
*365 ANTENNA_input2_A
*366 ANTENNA_input3_A
*367 ANTENNA_input4_A
*368 ANTENNA_input5_A
*369 ANTENNA_input6_A
*370 ANTENNA_input7_A
*371 ANTENNA_input8_A
*372 ANTENNA_input9_A
*373 FILLER_0_100
*374 FILLER_0_105
*375 FILLER_0_11
*376 FILLER_0_116
*377 FILLER_0_118
*378 FILLER_0_131
*379 FILLER_0_14
*380 FILLER_0_140
*381 FILLER_0_144
*382 FILLER_0_157
*383 FILLER_0_165
*384 FILLER_0_170
*385 FILLER_0_183
*386 FILLER_0_193
*387 FILLER_0_27
*388 FILLER_0_3
*389 FILLER_0_37
*390 FILLER_0_43
*391 FILLER_0_51
*392 FILLER_0_53
*393 FILLER_0_64
*394 FILLER_0_75
*395 FILLER_0_79
*396 FILLER_10_116
*397 FILLER_10_122
*398 FILLER_10_131
*399 FILLER_10_14
*400 FILLER_10_142
*401 FILLER_10_144
*402 FILLER_10_151
*403 FILLER_10_168
*404 FILLER_10_170
*405 FILLER_10_196
*406 FILLER_10_22
*407 FILLER_10_28
*408 FILLER_10_3
*409 FILLER_10_50
*410 FILLER_10_62
*411 FILLER_10_88
*412 FILLER_10_9
*413 FILLER_10_92
*414 FILLER_11_103
*415 FILLER_11_151
*416 FILLER_11_155
*417 FILLER_11_201
*418 FILLER_11_33
*419 FILLER_11_41
*420 FILLER_11_51
*421 FILLER_11_62
*422 FILLER_11_74
*423 FILLER_11_79
*424 FILLER_11_87
*425 FILLER_12_11
*426 FILLER_12_124
*427 FILLER_12_130
*428 FILLER_12_14
*429 FILLER_12_142
*430 FILLER_12_144
*431 FILLER_12_168
*432 FILLER_12_196
*433 FILLER_12_20
*434 FILLER_12_3
*435 FILLER_12_35
*436 FILLER_12_49
*437 FILLER_12_61
*438 FILLER_12_66
*439 FILLER_12_70
*440 FILLER_12_87
*441 FILLER_12_92
*442 FILLER_12_96
*443 FILLER_13_138
*444 FILLER_13_178
*445 FILLER_13_186
*446 FILLER_13_198
*447 FILLER_13_38
*448 FILLER_13_50
*449 FILLER_13_53
*450 FILLER_13_77
*451 FILLER_13_82
*452 FILLER_13_90
*453 FILLER_13_98
*454 FILLER_14_100
*455 FILLER_14_11
*456 FILLER_14_118
*457 FILLER_14_126
*458 FILLER_14_138
*459 FILLER_14_14
*460 FILLER_14_142
*461 FILLER_14_165
*462 FILLER_14_170
*463 FILLER_14_18
*464 FILLER_14_196
*465 FILLER_14_23
*466 FILLER_14_3
*467 FILLER_14_37
*468 FILLER_14_63
*469 FILLER_14_69
*470 FILLER_14_73
*471 FILLER_14_78
*472 FILLER_14_88
*473 FILLER_14_92
*474 FILLER_15_115
*475 FILLER_15_125
*476 FILLER_15_129
*477 FILLER_15_131
*478 FILLER_15_160
*479 FILLER_15_183
*480 FILLER_15_195
*481 FILLER_15_27
*482 FILLER_15_34
*483 FILLER_15_40
*484 FILLER_15_47
*485 FILLER_15_51
*486 FILLER_15_61
*487 FILLER_15_69
*488 FILLER_15_83
*489 FILLER_15_98
*490 FILLER_16_118
*491 FILLER_16_130
*492 FILLER_16_14
*493 FILLER_16_166
*494 FILLER_16_18
*495 FILLER_16_196
*496 FILLER_16_3
*497 FILLER_16_32
*498 FILLER_16_40
*499 FILLER_16_48
*500 FILLER_16_57
*501 FILLER_16_66
*502 FILLER_16_7
*503 FILLER_16_80
*504 FILLER_16_88
*505 FILLER_16_92
*506 FILLER_17_112
*507 FILLER_17_129
*508 FILLER_17_131
*509 FILLER_17_157
*510 FILLER_17_183
*511 FILLER_17_195
*512 FILLER_17_201
*513 FILLER_17_35
*514 FILLER_17_88
*515 FILLER_17_98
*516 FILLER_18_11
*517 FILLER_18_113
*518 FILLER_18_168
*519 FILLER_18_170
*520 FILLER_18_196
*521 FILLER_18_3
*522 FILLER_18_60
*523 FILLER_18_87
*524 FILLER_19_105
*525 FILLER_19_11
*526 FILLER_19_116
*527 FILLER_19_118
*528 FILLER_19_128
*529 FILLER_19_14
*530 FILLER_19_155
*531 FILLER_19_160
*532 FILLER_19_170
*533 FILLER_19_174
*534 FILLER_19_183
*535 FILLER_19_191
*536 FILLER_19_3
*537 FILLER_19_33
*538 FILLER_19_40
*539 FILLER_19_53
*540 FILLER_19_66
*541 FILLER_19_82
*542 FILLER_19_90
*543 FILLER_19_92
*544 FILLER_1_101
*545 FILLER_1_109
*546 FILLER_1_121
*547 FILLER_1_15
*548 FILLER_1_180
*549 FILLER_1_23
*550 FILLER_1_3
*551 FILLER_1_51
*552 FILLER_1_75
*553 FILLER_1_79
*554 FILLER_2_100
*555 FILLER_2_11
*556 FILLER_2_114
*557 FILLER_2_125
*558 FILLER_2_133
*559 FILLER_2_153
*560 FILLER_2_157
*561 FILLER_2_166
*562 FILLER_2_3
*563 FILLER_2_34
*564 FILLER_2_45
*565 FILLER_2_57
*566 FILLER_2_75
*567 FILLER_2_87
*568 FILLER_3_103
*569 FILLER_3_124
*570 FILLER_3_131
*571 FILLER_3_135
*572 FILLER_3_142
*573 FILLER_3_150
*574 FILLER_3_183
*575 FILLER_3_195
*576 FILLER_3_201
*577 FILLER_3_29
*578 FILLER_3_3
*579 FILLER_3_43
*580 FILLER_3_51
*581 FILLER_3_62
*582 FILLER_3_75
*583 FILLER_4_11
*584 FILLER_4_113
*585 FILLER_4_127
*586 FILLER_4_14
*587 FILLER_4_168
*588 FILLER_4_196
*589 FILLER_4_26
*590 FILLER_4_3
*591 FILLER_4_32
*592 FILLER_4_37
*593 FILLER_4_59
*594 FILLER_4_66
*595 FILLER_4_83
*596 FILLER_5_100
*597 FILLER_5_105
*598 FILLER_5_131
*599 FILLER_5_140
*600 FILLER_5_146
*601 FILLER_5_157
*602 FILLER_5_183
*603 FILLER_5_195
*604 FILLER_5_201
*605 FILLER_5_25
*606 FILLER_5_30
*607 FILLER_5_36
*608 FILLER_5_43
*609 FILLER_5_51
*610 FILLER_5_53
*611 FILLER_5_75
*612 FILLER_5_87
*613 FILLER_5_92
*614 FILLER_6_102
*615 FILLER_6_11
*616 FILLER_6_111
*617 FILLER_6_118
*618 FILLER_6_130
*619 FILLER_6_14
*620 FILLER_6_142
*621 FILLER_6_144
*622 FILLER_6_150
*623 FILLER_6_170
*624 FILLER_6_200
*625 FILLER_6_3
*626 FILLER_6_37
*627 FILLER_6_50
*628 FILLER_6_72
*629 FILLER_6_94
*630 FILLER_7_100
*631 FILLER_7_123
*632 FILLER_7_134
*633 FILLER_7_157
*634 FILLER_7_180
*635 FILLER_7_183
*636 FILLER_7_195
*637 FILLER_7_3
*638 FILLER_7_34
*639 FILLER_7_48
*640 FILLER_7_53
*641 FILLER_7_57
*642 FILLER_7_65
*643 FILLER_7_71
*644 FILLER_8_112
*645 FILLER_8_116
*646 FILLER_8_118
*647 FILLER_8_135
*648 FILLER_8_14
*649 FILLER_8_144
*650 FILLER_8_196
*651 FILLER_8_28
*652 FILLER_8_3
*653 FILLER_8_36
*654 FILLER_8_60
*655 FILLER_8_9
*656 FILLER_9_102
*657 FILLER_9_127
*658 FILLER_9_131
*659 FILLER_9_143
*660 FILLER_9_151
*661 FILLER_9_155
*662 FILLER_9_157
*663 FILLER_9_183
*664 FILLER_9_188
*665 FILLER_9_200
*666 FILLER_9_29
*667 FILLER_9_3
*668 FILLER_9_41
*669 FILLER_9_49
*670 FILLER_9_53
*671 FILLER_9_65
*672 FILLER_9_77
*673 FILLER_9_79
*674 FILLER_9_97
*675 PHY_0
*676 PHY_1
*677 PHY_10
*678 PHY_11
*679 PHY_12
*680 PHY_13
*681 PHY_14
*682 PHY_15
*683 PHY_16
*684 PHY_17
*685 PHY_18
*686 PHY_19
*687 PHY_2
*688 PHY_20
*689 PHY_21
*690 PHY_22
*691 PHY_23
*692 PHY_24
*693 PHY_25
*694 PHY_26
*695 PHY_27
*696 PHY_28
*697 PHY_29
*698 PHY_3
*699 PHY_30
*700 PHY_31
*701 PHY_32
*702 PHY_33
*703 PHY_34
*704 PHY_35
*705 PHY_36
*706 PHY_37
*707 PHY_38
*708 PHY_39
*709 PHY_4
*710 PHY_5
*711 PHY_6
*712 PHY_7
*713 PHY_8
*714 PHY_9
*715 TAP_100
*716 TAP_101
*717 TAP_102
*718 TAP_103
*719 TAP_104
*720 TAP_105
*721 TAP_106
*722 TAP_107
*723 TAP_108
*724 TAP_109
*725 TAP_110
*726 TAP_111
*727 TAP_112
*728 TAP_113
*729 TAP_114
*730 TAP_115
*731 TAP_116
*732 TAP_117
*733 TAP_118
*734 TAP_119
*735 TAP_120
*736 TAP_121
*737 TAP_122
*738 TAP_123
*739 TAP_124
*740 TAP_125
*741 TAP_126
*742 TAP_127
*743 TAP_128
*744 TAP_129
*745 TAP_130
*746 TAP_131
*747 TAP_132
*748 TAP_133
*749 TAP_134
*750 TAP_135
*751 TAP_136
*752 TAP_137
*753 TAP_138
*754 TAP_139
*755 TAP_140
*756 TAP_141
*757 TAP_142
*758 TAP_143
*759 TAP_144
*760 TAP_145
*761 TAP_146
*762 TAP_147
*763 TAP_148
*764 TAP_149
*765 TAP_150
*766 TAP_151
*767 TAP_152
*768 TAP_153
*769 TAP_154
*770 TAP_155
*771 TAP_156
*772 TAP_157
*773 TAP_158
*774 TAP_159
*775 TAP_160
*776 TAP_161
*777 TAP_162
*778 TAP_163
*779 TAP_164
*780 TAP_165
*781 TAP_166
*782 TAP_167
*783 TAP_168
*784 TAP_169
*785 TAP_170
*786 TAP_171
*787 TAP_172
*788 TAP_173
*789 TAP_174
*790 TAP_175
*791 TAP_176
*792 TAP_177
*793 TAP_178
*794 TAP_179
*795 TAP_180
*796 TAP_181
*797 TAP_182
*798 TAP_183
*799 TAP_184
*800 TAP_185
*801 TAP_186
*802 TAP_187
*803 TAP_188
*804 TAP_189
*805 TAP_190
*806 TAP_191
*807 TAP_192
*808 TAP_193
*809 TAP_194
*810 TAP_195
*811 TAP_196
*812 TAP_197
*813 TAP_198
*814 TAP_199
*815 TAP_200
*816 TAP_201
*817 TAP_202
*818 TAP_203
*819 TAP_204
*820 TAP_40
*821 TAP_41
*822 TAP_42
*823 TAP_43
*824 TAP_44
*825 TAP_45
*826 TAP_46
*827 TAP_47
*828 TAP_48
*829 TAP_49
*830 TAP_50
*831 TAP_51
*832 TAP_52
*833 TAP_53
*834 TAP_54
*835 TAP_55
*836 TAP_56
*837 TAP_57
*838 TAP_58
*839 TAP_59
*840 TAP_60
*841 TAP_61
*842 TAP_62
*843 TAP_63
*844 TAP_64
*845 TAP_65
*846 TAP_66
*847 TAP_67
*848 TAP_68
*849 TAP_69
*850 TAP_70
*851 TAP_71
*852 TAP_72
*853 TAP_73
*854 TAP_74
*855 TAP_75
*856 TAP_76
*857 TAP_77
*858 TAP_78
*859 TAP_79
*860 TAP_80
*861 TAP_81
*862 TAP_82
*863 TAP_83
*864 TAP_84
*865 TAP_85
*866 TAP_86
*867 TAP_87
*868 TAP_88
*869 TAP_89
*870 TAP_90
*871 TAP_91
*872 TAP_92
*873 TAP_93
*874 TAP_94
*875 TAP_95
*876 TAP_96
*877 TAP_97
*878 TAP_98
*879 TAP_99
*880 _207_
*881 _208_
*882 _209_
*883 _210_
*884 _211_
*885 _212_
*886 _213_
*887 _214_
*888 _215_
*889 _216_
*890 _217_
*891 _218_
*892 _219_
*893 _220_
*894 _221_
*895 _222_
*896 _223_
*897 _224_
*898 _225_
*899 _226_
*900 _227_
*901 _228_
*902 _229_
*903 _230_
*904 _231_
*905 _232_
*906 _233_
*907 _234_
*908 _235_
*909 _236_
*910 _237_
*911 _238_
*912 _239_
*913 _240_
*914 _241_
*915 _242_
*916 _243_
*917 _244_
*918 _245__1
*919 _246_
*920 _247_
*921 _248_
*922 _249__2
*923 _250_
*924 _251_
*925 _252_
*926 _253_
*927 _254_
*928 _255_
*929 _256_
*930 _257_
*931 _258_
*932 _259_
*933 _260_
*934 _261_
*935 _262_
*936 _263_
*937 _264_
*938 _265__3
*939 _266_
*940 _267_
*941 _268_
*942 _269_
*943 _270_
*944 _271_
*945 _272_
*946 _273_
*947 _274_
*948 _275_
*949 _276_
*950 _277_
*951 _278_
*952 _279_
*953 _280_
*954 _281_
*955 _282_
*956 _283_
*957 _284_
*958 _285_
*959 _286_
*960 _287_
*961 _288_
*962 _289_
*963 _290_
*964 _291_
*965 _292_
*966 _293_
*967 _294_
*968 _295_
*969 _296_
*970 _297_
*971 _298_
*972 _299_
*973 _300_
*974 _301_
*975 _302_
*976 _303_
*977 _304__4
*978 _305_
*979 _306_
*980 _307_
*981 _308__5
*982 _309_
*983 _310_
*984 _311_
*985 _312_
*986 _313_
*987 _314_
*988 _315_
*989 _316_
*990 _317_
*991 _318_
*992 _319_
*993 _320_
*994 _321_
*995 _322_
*996 _323_
*997 _324_
*998 _325_
*999 _326_
*1000 _327_
*1001 _328_
*1002 _329_
*1003 _330_
*1004 _331_
*1005 _332_
*1006 _333_
*1007 _334_
*1008 _335_
*1009 _336_
*1010 _337__6
*1011 _338_
*1012 _339_
*1013 _340_
*1014 _341_
*1015 _342_
*1016 _343_
*1017 _344_
*1018 _345_
*1019 _346__9
*1020 _347__8
*1021 _348__7
*1022 _349_
*1023 _350_
*1024 _351_
*1025 _352_
*1026 _353_
*1027 _354_
*1028 _355_
*1029 _356_
*1030 _357_
*1031 _358_
*1032 _359_
*1033 _360_
*1034 _361_
*1035 _362_
*1036 _363_
*1037 _364_
*1038 _365_
*1039 _366_
*1040 _367_
*1041 _368_
*1042 _369_
*1043 _370_
*1044 _371_
*1045 _372_
*1046 _373_
*1047 _374_
*1048 _375_
*1049 _376_
*1050 _377_
*1051 _378_
*1052 _379_
*1053 _380_
*1054 _381_
*1055 _382_
*1056 _383_
*1057 _384__13
*1058 _385_
*1059 _386_
*1060 _387_
*1061 _388_
*1062 _389_
*1063 _390_
*1064 _391_
*1065 _392_
*1066 _393_
*1067 _394_
*1068 _395_
*1069 _396_
*1070 _397_
*1071 _398_
*1072 _399_
*1073 _400_
*1074 _401_
*1075 _402_
*1076 _403_
*1077 _404_
*1078 _405_
*1079 _406_
*1080 _407_
*1081 _408_
*1082 _409_
*1083 _410_
*1084 _411_
*1085 _412_
*1086 _413_
*1087 _414_
*1088 _415_
*1089 _416_
*1090 _417_
*1091 _418_
*1092 _419_
*1093 _420_
*1094 _421_
*1095 _422_
*1096 _423_
*1097 _424_
*1098 _425_
*1099 _426_
*1100 _427_
*1101 _428_
*1102 _429_
*1103 _430_
*1104 _431_
*1105 _432_
*1106 _433_
*1107 _434_
*1108 _435_
*1109 _436_
*1110 _437_
*1111 _438_
*1112 _439_
*1113 _440_
*1114 _441_
*1115 _442_
*1116 _443_
*1117 _444_
*1118 _445_
*1119 _446_
*1120 _447_
*1121 _448_
*1122 _449_
*1123 _450_
*1124 _451_
*1125 _452_
*1126 _453_
*1127 _454_
*1128 _455_
*1129 _456_
*1130 _457_
*1131 _458_
*1132 _459_
*1133 _460_
*1134 _461_
*1135 _462_
*1136 _463_
*1137 _464_
*1138 _465_
*1139 _466_
*1140 _467_
*1141 _468_
*1142 _469_
*1143 _470_
*1144 _471_
*1145 _472_
*1146 _473_
*1147 _474_
*1148 _475_
*1149 _476_
*1150 clkbuf_0_ext_clk
*1151 clkbuf_0_pll_clk
*1152 clkbuf_0_pll_clk90
*1153 clkbuf_1_0_0_ext_clk
*1154 clkbuf_1_0_0_pll_clk
*1155 clkbuf_1_0_0_pll_clk90
*1156 clkbuf_1_1_0_ext_clk
*1157 clkbuf_1_1_0_pll_clk
*1158 clkbuf_1_1_0_pll_clk90
*1159 hold1
*1160 input1
*1161 input2
*1162 input3
*1163 input4
*1164 input5
*1165 input6
*1166 input7
*1167 input8
*1168 input9
*1169 output10
*1170 output11
*1171 output12
*1172 rebuffer3
*1173 rebuffer4
*1174 split2

*PORTS
core_clk O
ext_clk I
ext_clk_sel I
ext_reset I
pll_clk I
pll_clk90 I
resetb I
resetb_sync O
sel2[0] I
sel2[1] I
sel2[2] I
sel[0] I
sel[1] I
sel[2] I
user_clk O

*D_NET *3 0.000410762
*CONN
*P core_clk O
*I *1169:X O *D sky130_fd_sc_hd__clkbuf_1
*CAP
1 core_clk 0.000205381
2 *1169:X 0.000205381
*RES
1 *1169:X core_clk 17.8118 
*END

*D_NET *4 0.0124107
*CONN
*P ext_clk I
*I *1150:A I *D sky130_fd_sc_hd__clkbuf_16
*I *361:DIODE I *D sky130_fd_sc_hd__diode_2
*CAP
1 ext_clk 0.000751363
2 *1150:A 5.14943e-05
3 *361:DIODE 4.49174e-05
4 *4:14 0.000531879
5 *4:8 0.00351517
6 *4:7 0.00383106
7 *361:DIODE *251:31 1.27193e-05
8 *4:7 *917:A1_N 0
9 *4:7 *930:A 0.000297463
10 *4:7 *932:A2 0
11 *4:7 *1069:A0 0
12 *4:7 *1069:S 7.08648e-05
13 *4:7 *1141:D 4.75721e-06
14 *4:7 *1141:RESET_B 4.54325e-05
15 *4:7 *220:59 2.87136e-06
16 *4:7 *250:71 2.94263e-05
17 *4:7 *271:68 0
18 *4:8 *899:A_N 2.398e-06
19 *4:8 *899:B 0.000214341
20 *4:8 *899:C 0.000280276
21 *4:8 *903:A 2.77625e-06
22 *4:8 *903:C 0.000373061
23 *4:8 *909:A1 6.50727e-05
24 *4:8 *926:C 0.00056164
25 *4:8 *933:B 4.56831e-05
26 *4:8 *1033:B1 0.00102053
27 *4:8 *1155:A 2.50864e-05
28 *4:8 *46:35 2.41483e-05
29 *4:8 *220:7 5.54372e-05
30 *4:8 *220:12 2.78496e-05
31 *4:8 *271:38 4.87301e-05
32 *4:8 *271:46 0.000219475
33 *4:14 *1073:A1 2.61576e-05
34 *4:14 *251:31 2.84661e-05
35 *4:14 *300:15 0.000200187
*RES
1 ext_clk *4:7 23.8947 
2 *4:7 *4:8 51.7469 
3 *4:8 *4:14 18.8934 
4 *4:14 *361:DIODE 9.97254 
5 *4:14 *1150:A 10.6477 
*END

*D_NET *5 0.000725802
*CONN
*P ext_clk_sel I
*I *364:DIODE I *D sky130_fd_sc_hd__diode_2
*I *1160:A I *D sky130_fd_sc_hd__clkbuf_1
*CAP
1 ext_clk_sel 0.000216154
2 *364:DIODE 6.18237e-05
3 *1160:A 0
4 *5:8 0.000277978
5 *364:DIODE *1001:B 0.000120052
6 *5:8 *1001:B 4.97938e-05
*RES
1 ext_clk_sel *5:8 4.91425 
2 *5:8 *1160:A 13.7491 
3 *5:8 *364:DIODE 15.9964 
*END

*D_NET *6 0.00128819
*CONN
*P ext_reset I
*I *1161:A I *D sky130_fd_sc_hd__clkbuf_1
*I *365:DIODE I *D sky130_fd_sc_hd__diode_2
*CAP
1 ext_reset 0.00035395
2 *1161:A 0
3 *365:DIODE 0.000167575
4 *6:11 0.000521525
5 *365:DIODE *1054:A 6.94431e-05
6 *365:DIODE *1170:A 0.000112361
7 *6:11 *8:11 6.33375e-05
*RES
1 ext_reset *6:11 13.9241 
2 *6:11 *365:DIODE 13.8789 
3 *6:11 *1161:A 9.24915 
*END

*D_NET *7 0.00878347
*CONN
*P pll_clk I
*I *363:DIODE I *D sky130_fd_sc_hd__diode_2
*I *1151:A I *D sky130_fd_sc_hd__clkbuf_16
*CAP
1 pll_clk 0.00126009
2 *363:DIODE 0
3 *1151:A 7.65637e-05
4 *7:16 0.00186721
5 *7:15 0.00305074
6 *1151:A *1157:A 0.000122378
7 *7:15 *1089:A0 0
8 *7:15 *1089:S 7.14746e-05
9 *7:15 *1092:A0 2.94593e-05
10 *7:15 *1101:D 1.11039e-05
11 *7:15 *1104:CLK 0
12 *7:15 *1112:CLK 7.60455e-05
13 *7:15 *1115:CLK 0
14 *7:15 *1117:D 0
15 *7:15 *1117:CLK 9.81682e-06
16 *7:15 *1156:A 0.000371502
17 *7:15 *256:8 0.000139684
18 *7:15 *279:8 0
19 *7:15 *297:137 0.000266075
20 *7:15 *297:899 0.000114659
21 *7:16 *881:A 7.49459e-05
22 *7:16 *1147:CLK 2.41274e-06
23 *7:16 *1157:A 3.33783e-05
24 *7:16 *31:7 0.000873208
25 *7:16 *222:7 6.36477e-05
26 *7:16 *223:71 9.03974e-05
27 *7:16 *250:19 4.19877e-05
28 *7:16 *250:21 2.57847e-05
29 *7:16 *250:29 0.000110909
*RES
1 pll_clk *7:15 41.2132 
2 *7:15 *7:16 29.0082 
3 *7:16 *1151:A 11.9257 
4 *7:16 *363:DIODE 9.24915 
*END

*D_NET *8 0.00840304
*CONN
*P pll_clk90 I
*I *362:DIODE I *D sky130_fd_sc_hd__diode_2
*I *1152:A I *D sky130_fd_sc_hd__clkbuf_16
*CAP
1 pll_clk90 0.00106004
2 *362:DIODE 0
3 *1152:A 0.00023854
4 *8:16 0.00166927
5 *8:11 0.00249077
6 *1152:A *889:A2 0.000203756
7 *1152:A *889:B1 0.00016553
8 *1152:A *898:A 6.03694e-05
9 *1152:A *1158:A 3.95326e-05
10 *1152:A *106:7 0.000110306
11 *1152:A *113:8 4.78069e-06
12 *8:11 *1066:A0 0
13 *8:11 *12:11 4.32761e-05
14 *8:11 *13:11 0.000110265
15 *8:11 *251:15 0
16 *8:11 *300:8 0.000118968
17 *8:16 *326:DIODE 0.000117805
18 *8:16 *367:DIODE 0.000114271
19 *8:16 *898:A 6.46815e-05
20 *8:16 *944:A 3.95326e-05
21 *8:16 *944:B 0.000114594
22 *8:16 *944:C_N 0.000114584
23 *8:16 *946:A 6.27718e-05
24 *8:16 *1092:A0 0.000249368
25 *8:16 *1092:A1 3.54435e-05
26 *8:16 *1092:S 0.00015901
27 *8:16 *1112:D 0.000194132
28 *8:16 *1115:D 0.000137962
29 *8:16 *142:7 0.000455496
30 *8:16 *144:10 4.65185e-05
31 *8:16 *250:8 0.00011813
32 *6:11 *8:11 6.33375e-05
*RES
1 pll_clk90 *8:11 32.273 
2 *8:11 *8:16 41.2577 
3 *8:16 *1152:A 16.0732 
4 *8:16 *362:DIODE 9.24915 
*END

*D_NET *9 0.000685316
*CONN
*P resetb I
*I *366:DIODE I *D sky130_fd_sc_hd__diode_2
*I *1162:A I *D sky130_fd_sc_hd__buf_12
*CAP
1 resetb 0.000255979
2 *366:DIODE 0
3 *1162:A 8.66788e-05
4 *9:5 0.000342658
*RES
1 resetb *9:5 6.10665 
2 *9:5 *1162:A 15.8893 
3 *9:5 *366:DIODE 13.7491 
*END

*D_NET *10 0.000342604
*CONN
*P resetb_sync O
*I *1170:X O *D sky130_fd_sc_hd__buf_2
*CAP
1 resetb_sync 0.000164707
2 *1170:X 0.000164707
3 resetb_sync *215:13 1.31907e-05
*RES
1 *1170:X resetb_sync 17.2572 
*END

*D_NET *11 0.000714984
*CONN
*P sel2[0] I
*I *1163:A I *D sky130_fd_sc_hd__clkbuf_1
*I *367:DIODE I *D sky130_fd_sc_hd__diode_2
*CAP
1 sel2[0] 0.0002352
2 *1163:A 0
3 *367:DIODE 5.01156e-05
4 *11:10 0.000285315
5 *367:DIODE *1112:D 3.00829e-05
6 *8:16 *367:DIODE 0.000114271
*RES
1 sel2[0] *11:10 8.999 
2 *11:10 *367:DIODE 11.0817 
3 *11:10 *1163:A 9.24915 
*END

*D_NET *12 0.000812616
*CONN
*P sel2[1] I
*I *1164:A I *D sky130_fd_sc_hd__clkbuf_1
*I *368:DIODE I *D sky130_fd_sc_hd__diode_2
*CAP
1 sel2[1] 0.000277313
2 *1164:A 0
3 *368:DIODE 7.50169e-05
4 *12:11 0.000352329
5 *368:DIODE *1113:D 6.46815e-05
6 *8:11 *12:11 4.32761e-05
*RES
1 sel2[1] *12:11 10.8917 
2 *12:11 *368:DIODE 11.0817 
3 *12:11 *1164:A 9.24915 
*END

*D_NET *13 0.000880133
*CONN
*P sel2[2] I
*I *1165:A I *D sky130_fd_sc_hd__clkbuf_1
*I *369:DIODE I *D sky130_fd_sc_hd__diode_2
*CAP
1 sel2[2] 0.000298504
2 *1165:A 0
3 *369:DIODE 8.64303e-05
4 *13:11 0.000384934
5 *8:11 *13:11 0.000110265
*RES
1 sel2[2] *13:11 11.3069 
2 *13:11 *369:DIODE 11.0817 
3 *13:11 *1165:A 9.24915 
*END

*D_NET *14 0.000709865
*CONN
*P sel[0] I
*I *1166:A I *D sky130_fd_sc_hd__clkbuf_1
*I *370:DIODE I *D sky130_fd_sc_hd__diode_2
*CAP
1 sel[0] 0.000272628
2 *1166:A 0
3 *370:DIODE 6.65558e-05
4 *14:10 0.000339183
5 *370:DIODE *1106:D 3.14978e-05
6 *14:10 *225:10 0
*RES
1 sel[0] *14:10 9.8295 
2 *14:10 *370:DIODE 11.0817 
3 *14:10 *1166:A 9.24915 
*END

*D_NET *15 0.000806218
*CONN
*P sel[1] I
*I *1167:A I *D sky130_fd_sc_hd__clkbuf_1
*I *371:DIODE I *D sky130_fd_sc_hd__diode_2
*CAP
1 sel[1] 0.000303527
2 *1167:A 0
3 *371:DIODE 8.67459e-05
4 *15:10 0.000390273
5 *15:10 *1107:D 2.56724e-05
6 *15:10 *1111:CLK 0
*RES
1 sel[1] *15:10 11.0753 
2 *15:10 *371:DIODE 11.0817 
3 *15:10 *1167:A 9.24915 
*END

*D_NET *16 0.000844543
*CONN
*P sel[2] I
*I *1168:A I *D sky130_fd_sc_hd__clkbuf_1
*I *372:DIODE I *D sky130_fd_sc_hd__diode_2
*CAP
1 sel[2] 0.000310775
2 *1168:A 0
3 *372:DIODE 8.60002e-05
4 *16:10 0.000396775
5 *16:10 *1108:D 5.09928e-05
*RES
1 sel[2] *16:10 11.4905 
2 *16:10 *372:DIODE 11.0817 
3 *16:10 *1168:A 9.24915 
*END

*D_NET *17 0.000689287
*CONN
*P user_clk O
*I *1171:X O *D sky130_fd_sc_hd__clkbuf_1
*CAP
1 user_clk 0.00030183
2 *1171:X 0.00030183
3 user_clk *1022:A1 6.46815e-05
4 user_clk *215:13 2.09463e-05
*RES
1 *1171:X user_clk 19.4756 
*END

*D_NET *18 0.00692711
*CONN
*I *1069:A0 I *D sky130_fd_sc_hd__mux2_1
*I *907:A2 I *D sky130_fd_sc_hd__a21bo_1
*I *894:B1 I *D sky130_fd_sc_hd__o21a_1
*I *905:A2 I *D sky130_fd_sc_hd__a21bo_1
*I *909:A2 I *D sky130_fd_sc_hd__a21bo_1
*I *893:Y O *D sky130_fd_sc_hd__nand2_2
*CAP
1 *1069:A0 0.000169629
2 *907:A2 5.76127e-05
3 *894:B1 0.000437835
4 *905:A2 0
5 *909:A2 0.00015784
6 *893:Y 3.85027e-05
7 *18:34 0.000863654
8 *18:13 0.000949068
9 *18:6 0.000631153
10 *894:B1 *897:A 0.000116652
11 *894:B1 *899:C 0
12 *894:B1 *1058:S 3.28692e-05
13 *894:B1 *1155:A 0
14 *894:B1 *271:38 0
15 *907:A2 *1050:A 0.000220733
16 *907:A2 *115:33 0.000220733
17 *909:A2 *1142:D 0.000133878
18 *909:A2 *115:15 0.00011372
19 *909:A2 *250:66 5.29538e-05
20 *1069:A0 *916:A 0.000263828
21 *1069:A0 *1069:A1 6.92705e-05
22 *1069:A0 *1069:S 3.54138e-05
23 *18:6 *1069:S 1.69261e-05
24 *18:13 *900:A 3.19995e-05
25 *18:13 *901:A 7.06521e-05
26 *18:13 *1144:D 4.56667e-05
27 *18:13 *109:32 0.00016553
28 *18:13 *116:7 0.000136157
29 *18:13 *252:110 0.000332161
30 *18:34 *905:A1 0.000426154
31 *18:34 *1050:A 1.41976e-05
32 *18:34 *1058:S 1.87469e-05
33 *18:34 *116:7 5.51483e-06
34 *18:34 *252:110 0.00074156
35 *18:34 *262:19 0.000356495
36 *18:34 *271:38 0
37 *4:7 *1069:A0 0
*RES
1 *893:Y *18:6 14.7506 
2 *18:6 *18:13 15.8091 
3 *18:13 *909:A2 23.0201 
4 *18:13 *905:A2 9.24915 
5 *18:13 *18:34 20.1141 
6 *18:34 *894:B1 23.4709 
7 *18:34 *907:A2 16.8692 
8 *18:6 *1069:A0 19.3535 
*END

*D_NET *19 0.00928681
*CONN
*I *964:A2 I *D sky130_fd_sc_hd__a21bo_1
*I *966:A2 I *D sky130_fd_sc_hd__a21bo_1
*I *1005:B1 I *D sky130_fd_sc_hd__o21a_1
*I *968:A2 I *D sky130_fd_sc_hd__a21bo_1
*I *1076:A0 I *D sky130_fd_sc_hd__mux2_1
*I *962:Y O *D sky130_fd_sc_hd__nand2_2
*CAP
1 *964:A2 0
2 *966:A2 0
3 *1005:B1 0.00059978
4 *968:A2 0
5 *1076:A0 0.000396204
6 *962:Y 0.000224519
7 *19:43 0.00167082
8 *19:33 0.00128355
9 *19:30 0.000576773
10 *19:12 0.000984985
11 *1005:B1 *1005:A2 2.65831e-05
12 *1076:A0 *957:A 0.000132921
13 *1076:A0 *962:A 0.0002505
14 *1076:A0 *962:B 7.28994e-06
15 *1076:A0 *985:A 0.000141187
16 *1076:A0 *985:C 1.50906e-05
17 *1076:A0 *1006:A 0.000413712
18 *1076:A0 *1173:A 0.00016553
19 *1076:A0 *153:23 0.000223333
20 *1076:A0 *219:13 0
21 *19:12 *985:C 1.80603e-05
22 *19:12 *219:13 0.000134308
23 *19:12 *225:50 0.000104731
24 *19:12 *297:348 0.00011818
25 *19:30 *985:C 0
26 *19:30 *1131:CLK 0.000200236
27 *19:30 *1132:D 0.00011818
28 *19:30 *245:29 0.000740347
29 *19:30 *297:344 1.28704e-05
30 *19:30 *297:348 4.3116e-06
31 *19:33 *964:A1 1.07248e-05
32 *19:33 *966:A1 0.000321203
33 *19:33 *1131:D 0
34 *19:33 *156:23 0
35 *19:43 *225:22 0.000165752
36 *19:43 *225:24 0.000225135
*RES
1 *962:Y *19:12 27.9016 
2 *19:12 *1076:A0 28.5685 
3 *19:12 *19:30 18.2759 
4 *19:30 *19:33 11.315 
5 *19:33 *19:43 15.749 
6 *19:43 *968:A2 9.24915 
7 *19:43 *1005:B1 23.8617 
8 *19:33 *966:A2 13.7491 
9 *19:30 *964:A2 9.24915 
*END

*D_NET *20 0.00379534
*CONN
*I *913:C I *D sky130_fd_sc_hd__nand3b_1
*I *911:A I *D sky130_fd_sc_hd__inv_2
*I *919:B I *D sky130_fd_sc_hd__and2b_1
*I *1069:X O *D sky130_fd_sc_hd__mux2_1
*CAP
1 *913:C 0.00018269
2 *911:A 1.15099e-05
3 *919:B 0.000206147
4 *1069:X 0.000696338
5 *20:29 0.00044454
6 *20:17 0.00115282
7 *911:A *913:A_N 6.27718e-05
8 *911:A *921:B1_N 6.27718e-05
9 *913:C *913:A_N 0.00014743
10 *913:C *921:B1_N 1.4106e-05
11 *919:B *910:A 2.58052e-05
12 *919:B *920:A2 0.000122378
13 *919:B *1139:RESET_B 1.06441e-05
14 *919:B *1140:D 2.26713e-06
15 *919:B *297:588 3.00073e-05
16 *20:17 *916:A 9.97445e-05
17 *20:17 *917:A2_N 1.41307e-05
18 *20:17 *1141:D 7.90654e-06
19 *20:17 *127:7 3.82228e-05
20 *20:17 *220:59 1.07117e-05
21 *20:17 *297:597 4.87301e-05
22 *20:17 *297:618 7.62877e-05
23 *20:29 *910:A 9.3417e-06
24 *20:29 *912:B1_N 0.000304746
25 *20:29 *1139:RESET_B 1.32834e-05
*RES
1 *1069:X *20:17 27.2985 
2 *20:17 *919:B 18.2001 
3 *20:17 *20:29 7.4379 
4 *20:29 *911:A 14.4725 
5 *20:29 *913:C 17.5719 
*END

*D_NET *21 0.00192282
*CONN
*I *1172:A I *D sky130_fd_sc_hd__buf_2
*I *972:C I *D sky130_fd_sc_hd__nand3b_1
*I *1076:X O *D sky130_fd_sc_hd__mux2_1
*CAP
1 *1172:A 1.59594e-05
2 *972:C 9.26353e-05
3 *1076:X 0.000147541
4 *21:9 0.000256136
5 *972:C *971:A1 0.000109421
6 *972:C *972:B 7.57579e-05
7 *972:C *245:67 0.000208606
8 *972:C *295:5 1.19705e-05
9 *21:9 *982:B 0.000467106
10 *21:9 *224:79 3.56119e-05
11 *21:9 *245:67 0.000502079
*RES
1 *1076:X *21:9 25.796 
2 *21:9 *972:C 13.3243 
3 *21:9 *1172:A 9.82786 
*END

*D_NET *22 0.000599842
*CONN
*I *997:A0 I *D sky130_fd_sc_hd__mux2_1
*I *1079:X O *D sky130_fd_sc_hd__mux2_1
*CAP
1 *997:A0 0.000165509
2 *1079:X 0.000165509