*SPEF "ieee 1481-1999"
*DESIGN "caravel_clocking"
*DATE "11:11:11 Fri 11 11, 1111"
*VENDOR "OpenRCX"
*PROGRAM "Parallel Extraction"
*VERSION "1.0"
*DESIGN_FLOW "NAME_SCOPE LOCAL" "PIN_CAP NONE"
*DIVIDER /
*DELIMITER :
*BUS_DELIMITER []
*T_UNIT 1 NS
*C_UNIT 1 PF
*R_UNIT 1 OHM
*L_UNIT 1 HENRY

*NAME_MAP
*3 core_clk
*4 ext_clk
*5 ext_clk_sel
*6 ext_reset
*7 pll_clk
*8 pll_clk90
*9 resetb
*10 resetb_sync
*11 sel2[0]
*12 sel2[1]
*13 sel2[2]
*14 sel[0]
*15 sel[1]
*16 sel[2]
*17 user_clk
*18 _000_
*19 _001_
*20 _002_
*21 _003_
*22 _004_
*23 _005_
*24 _006_
*25 _007_
*26 _008_
*27 _009_
*28 _010_
*29 _011_
*30 _012_
*31 _013_
*32 _014_
*33 _015_
*34 _016_
*35 _017_
*36 _018_
*37 _019_
*38 _020_
*39 _021_
*40 _022_
*41 _023_
*42 _024_
*43 _025_
*44 _026_
*45 _027_
*46 _028_
*47 _029_
*48 _030_
*49 _031_
*50 _032_
*51 _033_
*52 _034_
*53 _035_
*54 _036_
*55 _037_
*56 _038_
*57 _039_
*58 _040_
*59 _041_
*60 _042_
*61 _043_
*62 _044_
*63 _045_
*64 _046_
*65 _047_
*66 _054_
*67 _055_
*68 _056_
*69 _057_
*70 _058_
*71 _059_
*72 _060_
*73 _061_
*74 _062_
*75 _063_
*76 _064_
*77 _065_
*78 _066_
*79 _067_
*80 _068_
*81 _069_
*82 _070_
*83 _071_
*84 _072_
*85 _073_
*86 _074_
*87 _075_
*88 _076_
*89 _077_
*90 _078_
*91 _079_
*92 _080_
*93 _081_
*94 _082_
*95 _083_
*96 _084_
*97 _085_
*98 _086_
*99 _087_
*100 _088_
*101 _089_
*102 _090_
*103 _091_
*104 _092_
*105 _093_
*106 _094_
*107 _095_
*108 _096_
*109 _097_
*110 _098_
*111 _099_
*112 _100_
*113 _101_
*114 _102_
*115 _103_
*116 _104_
*117 _105_
*118 _106_
*119 _107_
*120 _108_
*121 _109_
*122 _110_
*123 _111_
*124 _112_
*125 _113_
*126 _114_
*127 _115_
*128 _116_
*129 _117_
*130 _118_
*131 _119_
*132 _120_
*133 _121_
*134 _122_
*135 _123_
*136 _124_
*137 _125_
*138 _126_
*139 _127_
*140 _128_
*141 _129_
*142 _130_
*143 _131_
*144 _132_
*145 _133_
*146 _134_
*147 _135_
*148 _136_
*149 _137_
*150 _138_
*151 _139_
*152 _140_
*153 _141_
*154 _142_
*155 _143_
*156 _144_
*157 _145_
*158 _146_
*159 _147_
*160 _148_
*161 _149_
*162 _150_
*163 _151_
*164 _152_
*165 _153_
*166 _154_
*167 _155_
*168 _156_
*169 _157_
*170 _158_
*171 _159_
*172 _160_
*173 _161_
*174 _162_
*175 _163_
*176 _164_
*177 _165_
*178 _166_
*179 _167_
*180 _168_
*181 _169_
*182 _170_
*183 _171_
*184 _172_
*185 _173_
*186 _174_
*187 _175_
*188 _176_
*189 _177_
*190 _178_
*191 _179_
*192 _180_
*193 _181_
*194 _182_
*195 _183_
*196 _184_
*197 _185_
*198 _186_
*199 _187_
*200 _188_
*201 _189_
*202 _190_
*203 _191_
*204 _192_
*205 _193_
*206 _194_
*207 _195_
*208 _196_
*209 _197_
*210 _198_
*211 _199_
*212 _200_
*213 _201_
*214 _202_
*215 clknet_0_ext_clk
*216 clknet_0_pll_clk
*217 clknet_0_pll_clk90
*218 clknet_1_0_0_ext_clk
*219 clknet_1_0_0_pll_clk
*220 clknet_1_0_0_pll_clk90
*221 clknet_1_1_0_ext_clk
*222 clknet_1_1_0_pll_clk
*223 clknet_1_1_0_pll_clk90
*224 divider\.even_0\.N\[0\]
*225 divider\.even_0\.N\[1\]
*226 divider\.even_0\.N\[2\]
*227 divider\.even_0\.counter\[0\]
*228 divider\.even_0\.counter\[1\]
*229 divider\.even_0\.counter\[2\]
*230 divider\.even_0\.out_counter
*231 divider\.odd_0\.counter2\[0\]
*232 divider\.odd_0\.counter2\[1\]
*233 divider\.odd_0\.counter2\[2\]
*234 divider\.odd_0\.counter\[0\]
*235 divider\.odd_0\.counter\[1\]
*236 divider\.odd_0\.counter\[2\]
*237 divider\.odd_0\.initial_begin\[0\]
*238 divider\.odd_0\.initial_begin\[1\]
*239 divider\.odd_0\.initial_begin\[2\]
*240 divider\.odd_0\.old_N\[0\]
*241 divider\.odd_0\.old_N\[1\]
*242 divider\.odd_0\.old_N\[2\]
*243 divider\.odd_0\.out_counter
*244 divider\.odd_0\.out_counter2
*245 divider\.odd_0\.rst_pulse
*246 divider\.out
*247 divider\.syncNp\[0\]
*248 divider\.syncNp\[1\]
*249 divider\.syncNp\[2\]
*250 divider2\.even_0\.N\[0\]
*251 divider2\.even_0\.N\[1\]
*252 divider2\.even_0\.N\[2\]
*253 divider2\.even_0\.counter\[0\]
*254 divider2\.even_0\.counter\[1\]
*255 divider2\.even_0\.counter\[2\]
*256 divider2\.even_0\.out_counter
*257 divider2\.odd_0\.counter2\[0\]
*258 divider2\.odd_0\.counter2\[1\]
*259 divider2\.odd_0\.counter2\[2\]
*260 divider2\.odd_0\.counter\[0\]
*261 divider2\.odd_0\.counter\[1\]
*262 divider2\.odd_0\.counter\[2\]
*263 divider2\.odd_0\.initial_begin\[0\]
*264 divider2\.odd_0\.initial_begin\[1\]
*265 divider2\.odd_0\.initial_begin\[2\]
*266 divider2\.odd_0\.old_N\[0\]
*267 divider2\.odd_0\.old_N\[1\]
*268 divider2\.odd_0\.old_N\[2\]
*269 divider2\.odd_0\.out_counter
*270 divider2\.odd_0\.out_counter2
*271 divider2\.odd_0\.rst_pulse
*272 divider2\.out
*273 divider2\.syncNp\[0\]
*274 divider2\.syncNp\[1\]
*275 divider2\.syncNp\[2\]
*276 ext_clk_syncd
*277 ext_clk_syncd_pre
*278 net1
*279 net10
*280 net11
*281 net12
*282 net13
*283 net14
*284 net15
*285 net16
*286 net17
*287 net18
*288 net19
*289 net2
*290 net20
*291 net21
*292 net22
*293 net23
*294 net24
*295 net25
*296 net26
*297 net27
*298 net28
*299 net29
*300 net3
*301 net30
*302 net31
*303 net4
*304 net5
*305 net6
*306 net7
*307 net8
*308 net9
*309 pll_clk_sel
*310 reset_delay\[0\]
*311 reset_delay\[1\]
*312 reset_delay\[2\]
*313 use_pll_first
*314 use_pll_second
*315 ANTENNA__343__S
*316 ANTENNA__421__SET_B
*317 ANTENNA__422__SET_B
*318 ANTENNA__423__SET_B
*319 ANTENNA__424__RESET_B
*320 ANTENNA__425__RESET_B
*321 ANTENNA__426__RESET_B
*322 ANTENNA__427__RESET_B
*323 ANTENNA__428__SET_B
*324 ANTENNA__429__RESET_B
*325 ANTENNA__430__RESET_B
*326 ANTENNA__431__SET_B
*327 ANTENNA__432__RESET_B
*328 ANTENNA__433__RESET_B
*329 ANTENNA__434__SET_B
*330 ANTENNA__435__RESET_B
*331 ANTENNA__436__RESET_B
*332 ANTENNA__437__SET_B
*333 ANTENNA__438__RESET_B
*334 ANTENNA__439__SET_B
*335 ANTENNA__440__RESET_B
*336 ANTENNA__441__SET_B
*337 ANTENNA__442__RESET_B
*338 ANTENNA__443__RESET_B
*339 ANTENNA__444__SET_B
*340 ANTENNA__445__RESET_B
*341 ANTENNA__446__RESET_B
*342 ANTENNA__447__SET_B
*343 ANTENNA__448__RESET_B
*344 ANTENNA__449__SET_B
*345 ANTENNA__450__RESET_B
*346 ANTENNA__451__RESET_B
*347 ANTENNA__452__SET_B
*348 ANTENNA__453__RESET_B
*349 ANTENNA__454__SET_B
*350 ANTENNA__455__SET_B
*351 ANTENNA__456__RESET_B
*352 ANTENNA__457__SET_B
*353 ANTENNA__458__RESET_B
*354 ANTENNA__459__SET_B
*355 ANTENNA__460__RESET_B
*356 ANTENNA__461__SET_B
*357 ANTENNA__462__RESET_B
*358 ANTENNA__463__RESET_B
*359 ANTENNA__464__SET_B
*360 ANTENNA__465__RESET_B
*361 ANTENNA__466__SET_B
*362 ANTENNA__467__RESET_B
*363 ANTENNA__468__SET_B
*364 ANTENNA__469__RESET_B
*365 ANTENNA__470__RESET_B
*366 ANTENNA_clkbuf_0_ext_clk_A
*367 ANTENNA_clkbuf_0_pll_clk90_A
*368 ANTENNA_clkbuf_0_pll_clk_A
*369 ANTENNA_input1_A
*370 ANTENNA_input2_A
*371 ANTENNA_input3_A
*372 ANTENNA_input4_A
*373 ANTENNA_input5_A
*374 ANTENNA_input6_A
*375 ANTENNA_input7_A
*376 ANTENNA_input8_A
*377 ANTENNA_input9_A
*378 FILLER_0_103
*379 FILLER_0_105
*380 FILLER_0_11
*381 FILLER_0_118
*382 FILLER_0_138
*383 FILLER_0_14
*384 FILLER_0_142
*385 FILLER_0_144
*386 FILLER_0_157
*387 FILLER_0_168
*388 FILLER_0_170
*389 FILLER_0_190
*390 FILLER_0_27
*391 FILLER_0_3
*392 FILLER_0_40
*393 FILLER_0_48
*394 FILLER_0_53
*395 FILLER_0_56
*396 FILLER_0_62
*397 FILLER_0_70
*398 FILLER_0_79
*399 FILLER_0_88
*400 FILLER_0_99
*401 FILLER_10_11
*402 FILLER_10_114
*403 FILLER_10_139
*404 FILLER_10_14
*405 FILLER_10_147
*406 FILLER_10_165
*407 FILLER_10_170
*408 FILLER_10_196
*409 FILLER_10_3
*410 FILLER_10_38
*411 FILLER_10_62
*412 FILLER_11_103
*413 FILLER_11_105
*414 FILLER_11_111
*415 FILLER_11_129
*416 FILLER_11_140
*417 FILLER_11_146
*418 FILLER_11_160
*419 FILLER_11_170
*420 FILLER_11_192
*421 FILLER_11_35
*422 FILLER_11_39
*423 FILLER_11_42
*424 FILLER_11_50
*425 FILLER_11_53
*426 FILLER_11_79
*427 FILLER_11_87
*428 FILLER_11_97
*429 FILLER_12_103
*430 FILLER_12_116
*431 FILLER_12_120
*432 FILLER_12_126
*433 FILLER_12_131
*434 FILLER_12_139
*435 FILLER_12_14
*436 FILLER_12_165
*437 FILLER_12_196
*438 FILLER_12_24
*439 FILLER_12_3
*440 FILLER_12_38
*441 FILLER_12_50
*442 FILLER_12_60
*443 FILLER_12_64
*444 FILLER_12_7
*445 FILLER_12_88
*446 FILLER_12_92
*447 FILLER_13_127
*448 FILLER_13_131
*449 FILLER_13_140
*450 FILLER_13_148
*451 FILLER_13_186
*452 FILLER_13_38
*453 FILLER_13_46
*454 FILLER_13_82
*455 FILLER_13_86
*456 FILLER_13_96
*457 FILLER_14_11
*458 FILLER_14_14
*459 FILLER_14_147
*460 FILLER_14_196
*461 FILLER_14_21
*462 FILLER_14_27
*463 FILLER_14_3
*464 FILLER_14_35
*465 FILLER_14_92
*466 FILLER_14_96
*467 FILLER_15_105
*468 FILLER_15_127
*469 FILLER_15_131
*470 FILLER_15_150
*471 FILLER_15_180
*472 FILLER_15_183
*473 FILLER_15_25
*474 FILLER_15_49
*475 FILLER_15_53
*476 FILLER_15_68
*477 FILLER_15_76
*478 FILLER_15_79
*479 FILLER_15_83
*480 FILLER_15_87
*481 FILLER_16_112
*482 FILLER_16_141
*483 FILLER_16_144
*484 FILLER_16_194
*485 FILLER_16_196
*486 FILLER_16_3
*487 FILLER_16_33
*488 FILLER_16_43
*489 FILLER_16_55
*490 FILLER_16_63
*491 FILLER_17_105
*492 FILLER_17_109
*493 FILLER_17_119
*494 FILLER_17_180
*495 FILLER_17_183
*496 FILLER_17_191
*497 FILLER_17_34
*498 FILLER_17_38
*499 FILLER_17_62
*500 FILLER_17_74
*501 FILLER_17_79
*502 FILLER_17_87
*503 FILLER_18_11
*504 FILLER_18_140
*505 FILLER_18_144
*506 FILLER_18_193
*507 FILLER_18_196
*508 FILLER_18_3
*509 FILLER_18_40
*510 FILLER_18_66
*511 FILLER_18_90
*512 FILLER_18_92
*513 FILLER_19_100
*514 FILLER_19_108
*515 FILLER_19_11
*516 FILLER_19_116
*517 FILLER_19_120
*518 FILLER_19_128
*519 FILLER_19_14
*520 FILLER_19_140
*521 FILLER_19_151
*522 FILLER_19_155
*523 FILLER_19_159
*524 FILLER_19_167
*525 FILLER_19_170
*526 FILLER_19_18
*527 FILLER_19_183
*528 FILLER_19_196
*529 FILLER_19_25
*530 FILLER_19_3
*531 FILLER_19_31
*532 FILLER_19_40
*533 FILLER_19_56
*534 FILLER_19_64
*535 FILLER_19_66
*536 FILLER_19_79
*537 FILLER_1_103
*538 FILLER_1_105
*539 FILLER_1_129
*540 FILLER_1_131
*541 FILLER_1_135
*542 FILLER_1_139
*543 FILLER_1_15
*544 FILLER_1_196
*545 FILLER_1_23
*546 FILLER_1_3
*547 FILLER_1_76
*548 FILLER_1_79
*549 FILLER_2_106
*550 FILLER_2_11
*551 FILLER_2_131
*552 FILLER_2_14
*553 FILLER_2_142
*554 FILLER_2_170
*555 FILLER_2_18
*556 FILLER_2_193
*557 FILLER_2_3
*558 FILLER_2_42
*559 FILLER_2_51
*560 FILLER_2_63
*561 FILLER_2_72
*562 FILLER_2_92
*563 FILLER_2_96
*564 FILLER_3_120
*565 FILLER_3_128
*566 FILLER_3_131
*567 FILLER_3_147
*568 FILLER_3_155
*569 FILLER_3_157
*570 FILLER_3_161
*571 FILLER_3_180
*572 FILLER_3_30
*573 FILLER_3_45
*574 FILLER_3_51
*575 FILLER_3_66
*576 FILLER_3_83
*577 FILLER_3_94
*578 FILLER_4_108
*579 FILLER_4_196
*580 FILLER_4_22
*581 FILLER_4_3
*582 FILLER_4_49
*583 FILLER_4_62
*584 FILLER_4_88
*585 FILLER_5_103
*586 FILLER_5_118
*587 FILLER_5_131
*588 FILLER_5_137
*589 FILLER_5_144
*590 FILLER_5_167
*591 FILLER_5_177
*592 FILLER_5_181
*593 FILLER_5_183
*594 FILLER_5_195
*595 FILLER_5_27
*596 FILLER_5_50
*597 FILLER_5_56
*598 FILLER_5_64
*599 FILLER_5_68
*600 FILLER_6_103
*601 FILLER_6_111
*602 FILLER_6_118
*603 FILLER_6_14
*604 FILLER_6_148
*605 FILLER_6_166
*606 FILLER_6_170
*607 FILLER_6_18
*608 FILLER_6_196
*609 FILLER_6_3
*610 FILLER_6_46
*611 FILLER_6_52
*612 FILLER_6_56
*613 FILLER_6_64
*614 FILLER_6_69
*615 FILLER_6_7
*616 FILLER_6_83
*617 FILLER_6_99
*618 FILLER_7_105
*619 FILLER_7_119
*620 FILLER_7_127
*621 FILLER_7_154
*622 FILLER_7_157
*623 FILLER_7_171
*624 FILLER_7_179
*625 FILLER_7_183
*626 FILLER_7_191
*627 FILLER_7_25
*628 FILLER_7_27
*629 FILLER_7_31
*630 FILLER_7_37
*631 FILLER_7_41
*632 FILLER_7_53
*633 FILLER_7_79
*634 FILLER_8_100
*635 FILLER_8_105
*636 FILLER_8_113
*637 FILLER_8_138
*638 FILLER_8_14
*639 FILLER_8_142
*640 FILLER_8_144
*641 FILLER_8_165
*642 FILLER_8_170
*643 FILLER_8_18
*644 FILLER_8_196
*645 FILLER_8_3
*646 FILLER_8_53
*647 FILLER_8_59
*648 FILLER_8_63
*649 FILLER_8_75
*650 FILLER_8_83
*651 FILLER_8_92
*652 FILLER_9_125
*653 FILLER_9_129
*654 FILLER_9_131
*655 FILLER_9_15
*656 FILLER_9_157
*657 FILLER_9_183
*658 FILLER_9_191
*659 FILLER_9_23
*660 FILLER_9_27
*661 FILLER_9_3
*662 FILLER_9_41
*663 FILLER_9_49
*664 FILLER_9_53
*665 FILLER_9_79
*666 FILLER_9_87
*667 FILLER_9_99
*668 PHY_0
*669 PHY_1
*670 PHY_10
*671 PHY_11
*672 PHY_12
*673 PHY_13
*674 PHY_14
*675 PHY_15
*676 PHY_16
*677 PHY_17
*678 PHY_18
*679 PHY_19
*680 PHY_2
*681 PHY_20
*682 PHY_21
*683 PHY_22
*684 PHY_23
*685 PHY_24
*686 PHY_25
*687 PHY_26
*688 PHY_27
*689 PHY_28
*690 PHY_29
*691 PHY_3
*692 PHY_30
*693 PHY_31
*694 PHY_32
*695 PHY_33
*696 PHY_34
*697 PHY_35
*698 PHY_36
*699 PHY_37
*700 PHY_38
*701 PHY_39
*702 PHY_4
*703 PHY_5
*704 PHY_6
*705 PHY_7
*706 PHY_8
*707 PHY_9
*708 TAP_100
*709 TAP_101
*710 TAP_102
*711 TAP_103
*712 TAP_104
*713 TAP_105
*714 TAP_106
*715 TAP_107
*716 TAP_108
*717 TAP_109
*718 TAP_110
*719 TAP_111
*720 TAP_112
*721 TAP_113
*722 TAP_114
*723 TAP_115
*724 TAP_116
*725 TAP_117
*726 TAP_118
*727 TAP_119
*728 TAP_120
*729 TAP_121
*730 TAP_122
*731 TAP_123
*732 TAP_124
*733 TAP_125
*734 TAP_126
*735 TAP_127
*736 TAP_128
*737 TAP_129
*738 TAP_130
*739 TAP_131
*740 TAP_132
*741 TAP_133
*742 TAP_134
*743 TAP_135
*744 TAP_136
*745 TAP_137
*746 TAP_138
*747 TAP_139
*748 TAP_140
*749 TAP_141
*750 TAP_142
*751 TAP_143
*752 TAP_144
*753 TAP_145
*754 TAP_146
*755 TAP_147
*756 TAP_148
*757 TAP_149
*758 TAP_150
*759 TAP_151
*760 TAP_152
*761 TAP_153
*762 TAP_154
*763 TAP_155
*764 TAP_156
*765 TAP_157
*766 TAP_158
*767 TAP_159
*768 TAP_160
*769 TAP_161
*770 TAP_162
*771 TAP_163
*772 TAP_164
*773 TAP_165
*774 TAP_166
*775 TAP_167
*776 TAP_168
*777 TAP_169
*778 TAP_170
*779 TAP_171
*780 TAP_172
*781 TAP_173
*782 TAP_174
*783 TAP_175
*784 TAP_176
*785 TAP_177
*786 TAP_178
*787 TAP_179
*788 TAP_180
*789 TAP_181
*790 TAP_182
*791 TAP_183
*792 TAP_184
*793 TAP_185
*794 TAP_186
*795 TAP_187
*796 TAP_188
*797 TAP_189
*798 TAP_190
*799 TAP_191
*800 TAP_192
*801 TAP_193
*802 TAP_194
*803 TAP_195
*804 TAP_196
*805 TAP_197
*806 TAP_198
*807 TAP_199
*808 TAP_200
*809 TAP_201
*810 TAP_202
*811 TAP_203
*812 TAP_204
*813 TAP_40
*814 TAP_41
*815 TAP_42
*816 TAP_43
*817 TAP_44
*818 TAP_45
*819 TAP_46
*820 TAP_47
*821 TAP_48
*822 TAP_49
*823 TAP_50
*824 TAP_51
*825 TAP_52
*826 TAP_53
*827 TAP_54
*828 TAP_55
*829 TAP_56
*830 TAP_57
*831 TAP_58
*832 TAP_59
*833 TAP_60
*834 TAP_61
*835 TAP_62
*836 TAP_63
*837 TAP_64
*838 TAP_65
*839 TAP_66
*840 TAP_67
*841 TAP_68
*842 TAP_69
*843 TAP_70
*844 TAP_71
*845 TAP_72
*846 TAP_73
*847 TAP_74
*848 TAP_75
*849 TAP_76
*850 TAP_77
*851 TAP_78
*852 TAP_79
*853 TAP_80
*854 TAP_81
*855 TAP_82
*856 TAP_83
*857 TAP_84
*858 TAP_85
*859 TAP_86
*860 TAP_87
*861 TAP_88
*862 TAP_89
*863 TAP_90
*864 TAP_91
*865 TAP_92
*866 TAP_93
*867 TAP_94
*868 TAP_95
*869 TAP_96
*870 TAP_97
*871 TAP_98
*872 TAP_99
*873 _204_
*874 _205_
*875 _206_
*876 _207_
*877 _208_
*878 _209_
*879 _210_
*880 _211_
*881 _212_
*882 _213_
*883 _214_
*884 _215_
*885 _216_
*886 _217_
*887 _218_
*888 _219_
*889 _220_
*890 _221_
*891 _222_
*892 _223_
*893 _224_
*894 _225_
*895 _226_
*896 _227_
*897 _228_
*898 _229_
*899 _230_
*900 _231_
*901 _232_
*902 _233_
*903 _234_
*904 _235_
*905 _236_
*906 _237_
*907 _238_
*908 _239_
*909 _240_
*910 _241_
*911 _242__1
*912 _243_
*913 _244_
*914 _245_
*915 _246__2
*916 _247_
*917 _248_
*918 _249_
*919 _250_
*920 _251_
*921 _252_
*922 _253_
*923 _254_
*924 _255_
*925 _256_
*926 _257_
*927 _258_
*928 _259_
*929 _260_
*930 _261_
*931 _262__3
*932 _263_
*933 _264_
*934 _265_
*935 _266_
*936 _267_
*937 _268_
*938 _269_
*939 _270_
*940 _271_
*941 _272_
*942 _273_
*943 _274_
*944 _275_
*945 _276_
*946 _277_
*947 _278_
*948 _279_
*949 _280_
*950 _281_
*951 _282_
*952 _283_
*953 _284_
*954 _285_
*955 _286_
*956 _287_
*957 _288_
*958 _289_
*959 _290_
*960 _291_
*961 _292_
*962 _293_
*963 _294_
*964 _295_
*965 _296_
*966 _297_
*967 _298_
*968 _299_
*969 _300_
*970 _301__4
*971 _302_
*972 _303_
*973 _304_
*974 _305__5
*975 _306_
*976 _307_
*977 _308_
*978 _309_
*979 _310_
*980 _311_
*981 _312_
*982 _313_
*983 _314_
*984 _315_
*985 _316_
*986 _317_
*987 _318_
*988 _319_
*989 _320_
*990 _321_
*991 _322_
*992 _323_
*993 _324_
*994 _325_
*995 _326_
*996 _327_
*997 _328_
*998 _329_
*999 _330_
*1000 _331_
*1001 _332_
*1002 _333_
*1003 _334__6
*1004 _335_
*1005 _336_
*1006 _337_
*1007 _338_
*1008 _339_
*1009 _340_
*1010 _341_
*1011 _342_
*1012 _343_
*1013 _344_
*1014 _345_
*1015 _346_
*1016 _347_
*1017 _348_
*1018 _349_
*1019 _350_
*1020 _351_
*1021 _352_
*1022 _353_
*1023 _354_
*1024 _355_
*1025 _356_
*1026 _357_
*1027 _358_
*1028 _359_
*1029 _360_
*1030 _361_
*1031 _362_
*1032 _363_
*1033 _364_
*1034 _365_
*1035 _366_
*1036 _367_
*1037 _368_
*1038 _369_
*1039 _370_
*1040 _371_
*1041 _372_
*1042 _373_
*1043 _374_
*1044 _375_
*1045 _376_
*1046 _377_
*1047 _378__13
*1048 _379_
*1049 _380_
*1050 _381_
*1051 _382_
*1052 _383_
*1053 _384_
*1054 _385_
*1055 _386_
*1056 _387_
*1057 _388_
*1058 _389_
*1059 _390_
*1060 _391_
*1061 _392_
*1062 _393_
*1063 _394_
*1064 _395_
*1065 _396_
*1066 _397_
*1067 _398_
*1068 _399_
*1069 _400_
*1070 _401_
*1071 _402_
*1072 _403_
*1073 _404_
*1074 _405_
*1075 _406_
*1076 _407_
*1077 _408_
*1078 _409_
*1079 _410_
*1080 _411_
*1081 _412_
*1082 _413_
*1083 _414_
*1084 _415_
*1085 _416_
*1086 _417_
*1087 _418_
*1088 _419_
*1089 _420_
*1090 _421_
*1091 _422_
*1092 _423_
*1093 _424_
*1094 _425_
*1095 _426_
*1096 _427_
*1097 _428_
*1098 _429_
*1099 _430_
*1100 _431_
*1101 _432_
*1102 _433_
*1103 _434_
*1104 _435_
*1105 _436_
*1106 _437_
*1107 _438_
*1108 _439_
*1109 _440_
*1110 _441_
*1111 _442_
*1112 _443_
*1113 _444_
*1114 _445_
*1115 _446_
*1116 _447_
*1117 _448_
*1118 _449_
*1119 _450_
*1120 _451_
*1121 _452_
*1122 _453_
*1123 _454_
*1124 _455_
*1125 _456_
*1126 _457_
*1127 _458_
*1128 _459_
*1129 _460_
*1130 _461_
*1131 _462_
*1132 _463_
*1133 _464_
*1134 _465_
*1135 _466_
*1136 _467_
*1137 _468_
*1138 _469_
*1139 _470_
*1140 clkbuf_0_ext_clk
*1141 clkbuf_0_pll_clk
*1142 clkbuf_0_pll_clk90
*1143 clkbuf_1_0_0_ext_clk
*1144 clkbuf_1_0_0_pll_clk
*1145 clkbuf_1_0_0_pll_clk90
*1146 clkbuf_1_1_0_ext_clk
*1147 clkbuf_1_1_0_pll_clk
*1148 clkbuf_1_1_0_pll_clk90
*1149 hold1
*1150 input1
*1151 input2
*1152 input3
*1153 input4
*1154 input5
*1155 input6
*1156 input7
*1157 input8
*1158 input9
*1159 output10
*1160 output11
*1161 output12
*1162 rebuffer1
*1163 rebuffer10
*1164 rebuffer2
*1165 rebuffer3
*1166 rebuffer4
*1167 rebuffer7
*1168 rebuffer8
*1169 rebuffer9
*1170 split2
*1171 split5
*1172 split6

*PORTS
core_clk O
ext_clk I
ext_clk_sel I
ext_reset I
pll_clk I
pll_clk90 I
resetb I
resetb_sync O
sel2[0] I
sel2[1] I
sel2[2] I
sel[0] I
sel[1] I
sel[2] I
user_clk O

*D_NET *3 0.000389604
*CONN
*P core_clk O
*I *1159:X O *D sky130_fd_sc_hd__clkbuf_1
*CAP
1 core_clk 0.000194802
2 *1159:X 0.000194802
*RES
1 *1159:X core_clk 20.5642 
*END

*D_NET *4 0.00537939
*CONN
*P ext_clk I
*I *366:DIODE I *D sky130_fd_sc_hd__diode_2
*I *1140:A I *D sky130_fd_sc_hd__clkbuf_16
*CAP
1 ext_clk 0.00201813
2 *366:DIODE 0
3 *1140:A 8.13136e-05
4 *4:12 0.00209944
5 *1140:A *1143:A 2.60765e-05
6 *4:12 *1034:A 1.04731e-05
7 *4:12 *1034:B 4.61271e-05
8 *4:12 *1036:B 2.83365e-05
9 *4:12 *1089:D 2.54227e-05
10 *4:12 *1143:A 0.000211539
11 *4:12 *257:26 0.000559792
12 *4:12 *257:38 0.000209972
13 *4:12 *277:10 6.27718e-05
*RES
1 ext_clk *4:12 40.9169 
2 *4:12 *1140:A 11.5158 
3 *4:12 *366:DIODE 9.24915 
*END

*D_NET *5 0.000857532
*CONN
*P ext_clk_sel I
*I *369:DIODE I *D sky130_fd_sc_hd__diode_2
*I *1150:A I *D sky130_fd_sc_hd__clkbuf_1
*CAP
1 ext_clk_sel 0.000295253
2 *369:DIODE 0
3 *1150:A 0.000133513
4 *5:8 0.000428766
5 *1150:A *1043:A 0
6 *5:8 *1043:A 0
*RES
1 ext_clk_sel *5:8 6.16001 
2 *5:8 *1150:A 16.9985 
3 *5:8 *369:DIODE 13.7491 
*END

*D_NET *6 0.0018211
*CONN
*P ext_reset I
*I *370:DIODE I *D sky130_fd_sc_hd__diode_2
*I *1151:A I *D sky130_fd_sc_hd__clkbuf_1
*CAP
1 ext_reset 0.000494683
2 *370:DIODE 0
3 *1151:A 0.000284624
4 *6:11 0.000779307
5 *1151:A *1160:A 0.000215846
6 *6:11 *8:7 4.66449e-05
*RES
1 ext_reset *6:11 14.7575 
2 *6:11 *1151:A 14.2888 
3 *6:11 *370:DIODE 9.24915 
*END

*D_NET *7 0.00815451
*CONN
*P pll_clk I
*I *368:DIODE I *D sky130_fd_sc_hd__diode_2
*I *1141:A I *D sky130_fd_sc_hd__clkbuf_16
*CAP
1 pll_clk 0.0012368
2 *368:DIODE 0
3 *1141:A 7.91119e-05
4 *7:8 0.00189529
5 *7:7 0.00305297
6 *1141:A *358:DIODE 5.56461e-05
7 *7:7 *363:DIODE 7.50872e-05
8 *7:7 *1079:A1 5.10794e-05
9 *7:7 *1082:A1 0
10 *7:7 *1105:D 0
11 *7:7 *1106:D 0
12 *7:7 *1107:D 0
13 *7:7 *44:8 0.000143041
14 *7:7 *142:6 0
15 *7:7 *300:665 2.59907e-05
16 *7:7 *300:674 3.19759e-05
17 *7:7 *300:683 2.5312e-05
18 *7:7 *300:720 0.000106018
19 *7:7 *300:726 0.000386759
20 *7:7 *300:736 2.44186e-05
21 *7:8 *358:DIODE 7.25324e-06
22 *7:8 *873:A1 1.75e-05
23 *7:8 *873:S 2.65667e-05
24 *7:8 *874:A 4.66876e-05
25 *7:8 *1042:A 1.84293e-05
26 *7:8 *1042:B 9.5199e-05
27 *7:8 *1132:CLK 0.000441814
28 *7:8 *1138:D 6.48675e-06
29 *7:8 *250:19 6.65878e-05
30 *7:8 *254:17 1.5006e-05
31 *7:8 *254:27 7.02172e-06
32 *7:8 *260:11 0.000216467
*RES
1 pll_clk *7:7 37.1828 
2 *7:7 *7:8 29.5628 
3 *7:8 *1141:A 11.9257 
4 *7:8 *368:DIODE 9.24915 
*END

*D_NET *8 0.0103678
*CONN
*P pll_clk90 I
*I *1142:A I *D sky130_fd_sc_hd__clkbuf_16
*I *367:DIODE I *D sky130_fd_sc_hd__diode_2
*CAP
1 pll_clk90 0.000782713
2 *1142:A 0
3 *367:DIODE 0.000289755
4 *8:10 0.00313824
5 *8:7 0.00363119
6 *367:DIODE *887:B1 0.000245307
7 *367:DIODE *1016:A 4.0965e-05
8 *367:DIODE *1048:S 0.000113107
9 *367:DIODE *313:11 0
10 *8:7 *12:11 4.35492e-05
11 *8:7 *13:11 3.10472e-05
12 *8:10 *891:A 2.61147e-05
13 *8:10 *1102:CLK 0.00020324
14 *8:10 *1136:CLK 2.16355e-05
15 *8:10 *1148:A 1.4091e-06
16 *8:10 *223:72 0.000513363
17 *8:10 *250:8 3.948e-05
18 *8:10 *272:8 0.000114594
19 *8:10 *272:55 0.00108545
20 *6:11 *8:7 4.66449e-05
*RES
1 pll_clk90 *8:7 23.8947 
2 *8:7 *8:10 46.4902 
3 *8:10 *367:DIODE 25.0964 
4 *8:10 *1142:A 9.24915 
*END

*D_NET *9 0.00169319
*CONN
*P resetb I
*I *1152:A I *D sky130_fd_sc_hd__buf_12
*I *371:DIODE I *D sky130_fd_sc_hd__diode_2
*CAP
1 resetb 0.000514687
2 *1152:A 9.48711e-05
3 *371:DIODE 0.000123854
4 *9:7 0.000733412
5 *371:DIODE *936:B1 2.65667e-05
6 *1152:A *936:A1 3.73115e-05
7 *1152:A *936:A2 0.000122378
8 *9:7 *930:B1 4.01117e-05
9 *9:7 *220:43 0
*RES
1 resetb *9:7 17.2507 
2 *9:7 *371:DIODE 11.0817 
3 *9:7 *1152:A 12.6491 
*END

*D_NET *10 0.00107528
*CONN
*P resetb_sync O
*I *1160:X O *D sky130_fd_sc_hd__buf_2
*CAP
1 resetb_sync 0.000497836
2 *1160:X 0.000497836
3 resetb_sync *246:69 7.92757e-06
4 resetb_sync *279:51 7.16754e-05
*RES
1 *1160:X resetb_sync 22.5978 
*END

*D_NET *11 0.000846708
*CONN
*P sel2[0] I
*I *1153:A I *D sky130_fd_sc_hd__clkbuf_1
*I *372:DIODE I *D sky130_fd_sc_hd__diode_2
*CAP
1 sel2[0] 0.000319548
2 *1153:A 0
3 *372:DIODE 7.87406e-05
4 *11:10 0.000398289
5 *11:10 *1102:D 5.01303e-05
*RES
1 sel2[0] *11:10 11.4905 
2 *11:10 *372:DIODE 11.0817 
3 *11:10 *1153:A 9.24915 
*END

*D_NET *12 0.000977641
*CONN
*P sel2[1] I
*I *1154:A I *D sky130_fd_sc_hd__clkbuf_1
*I *373:DIODE I *D sky130_fd_sc_hd__diode_2
*CAP
1 sel2[1] 0.000260307
2 *1154:A 0.000139731
3 *373:DIODE 0
4 *12:11 0.000400038
5 *1154:A *1103:D 4.65954e-06
6 *1154:A *1172:A 2.30636e-05
7 *1154:A *251:19 5.31465e-05
8 *1154:A *297:8 5.31465e-05
9 *8:7 *12:11 4.35492e-05
*RES
1 sel2[1] *12:11 10.0612 
2 *12:11 *373:DIODE 9.24915 
3 *12:11 *1154:A 13.903 
*END

*D_NET *13 0.000736426
*CONN
*P sel2[2] I
*I *1155:A I *D sky130_fd_sc_hd__clkbuf_1
*I *374:DIODE I *D sky130_fd_sc_hd__diode_2
*CAP
1 sel2[2] 0.000269151
2 *1155:A 0
3 *374:DIODE 7.4324e-05
4 *13:11 0.000343475
5 *374:DIODE *305:10 1.84293e-05
6 *8:7 *13:11 3.10472e-05
*RES
1 sel2[2] *13:11 10.9545 
2 *13:11 *374:DIODE 11.0817 
3 *13:11 *1155:A 9.24915 
*END

*D_NET *14 0.000844394
*CONN
*P sel[0] I
*I *1156:A I *D sky130_fd_sc_hd__clkbuf_1
*I *375:DIODE I *D sky130_fd_sc_hd__diode_2
*CAP
1 sel[0] 0.00030489
2 *1156:A 0
3 *375:DIODE 8.43446e-05
4 *14:8 0.000389234
5 *375:DIODE *1073:A0 2.6777e-05
6 *375:DIODE *1096:D 3.34802e-05
7 *14:8 *1073:A0 5.66868e-06
8 *14:8 *1099:D 0
9 *14:8 *309:8 0
*RES
1 sel[0] *14:8 6.16001 
2 *14:8 *375:DIODE 16.4116 
3 *14:8 *1156:A 13.7491 
*END

*D_NET *15 0.000816809
*CONN
*P sel[1] I
*I *1157:A I *D sky130_fd_sc_hd__clkbuf_1
*I *376:DIODE I *D sky130_fd_sc_hd__diode_2
*CAP
1 sel[1] 0.000299019
2 *1157:A 0
3 *376:DIODE 7.73118e-05
4 *15:10 0.000376331
5 *376:DIODE *1097:D 2.65831e-05
6 *15:10 *1097:CLK 3.75645e-05
*RES
1 sel[1] *15:10 11.0753 
2 *15:10 *376:DIODE 11.0817 
3 *15:10 *1157:A 9.24915 
*END

*D_NET *16 0.000647339
*CONN
*P sel[2] I
*I *1158:A I *D sky130_fd_sc_hd__clkbuf_1
*I *377:DIODE I *D sky130_fd_sc_hd__diode_2
*CAP
1 sel[2] 0.000239701
2 *1158:A 0
3 *377:DIODE 8.3968e-05
4 *16:10 0.000323669
*RES
1 sel[2] *16:10 8.999 
2 *16:10 *377:DIODE 11.0817 
3 *16:10 *1158:A 9.24915 
*END

*D_NET *17 0.000390693
*CONN
*P user_clk O
*I *1161:X O *D sky130_fd_sc_hd__clkbuf_1
*CAP
1 user_clk 0.000162127
2 *1161:X 0.000162127
3 user_clk *279:51 6.64392e-05
*RES
1 *1161:X user_clk 17.2572 
*END

*D_NET *18 0.0099031
*CONN
*I *900:A2 I *D sky130_fd_sc_hd__a21bo_1
*I *902:A2 I *D sky130_fd_sc_hd__a21bo_1
*I *887:B1 I *D sky130_fd_sc_hd__o21a_1
*I *1059:A0 I *D sky130_fd_sc_hd__mux2_1
*I *898:A2 I *D sky130_fd_sc_hd__a21bo_1
*I *886:Y O *D sky130_fd_sc_hd__nand2_2
*CAP
1 *900:A2 2.58166e-05
2 *902:A2 0
3 *887:B1 0.000608004
4 *1059:A0 3.39403e-05
5 *898:A2 0.000121568
6 *886:Y 0
7 *18:36 0.00104851
8 *18:27 0.000908607
9 *18:7 0.000671285
10 *18:4 0.000958064
11 *887:B1 *879:A 0.000213676
12 *887:B1 *879:B 0
13 *887:B1 *887:A2 2.08274e-05
14 *887:B1 *896:B 1.84042e-05
15 *887:B1 *901:B 5.5803e-05
16 *887:B1 *1016:A 1.41189e-05
17 *887:B1 *1136:CLK 0.000171642
18 *887:B1 *251:19 0.000265182
19 *887:B1 *260:24 1.5714e-05
20 *887:B1 *297:35 0.000100222
21 *887:B1 *313:11 0
22 *898:A2 *898:A1 0.000112228
23 *898:A2 *116:8 0.000122858
24 *898:A2 *262:20 3.00174e-06
25 *898:A2 *271:38 7.26606e-05
26 *900:A2 *900:A1 6.64392e-05
27 *900:A2 *116:39 0.000114594
28 *1059:A0 *108:10 3.44412e-06
29 *1059:A0 *116:8 6.56589e-05
30 *1059:A0 *271:38 4.9e-05
31 *18:7 *886:A 4.3817e-05
32 *18:7 *915:A 0.000140605
33 *18:7 *1167:A 6.27332e-05
34 *18:7 *45:7 0.000109427
35 *18:27 *915:A 0.00010886
36 *18:27 *115:5 6.27718e-05
37 *18:27 *115:43 0.000242087
38 *18:27 *252:93 0.000137777
39 *18:36 *889:A 0.000325731
40 *18:36 *890:B 2.49052e-05
41 *18:36 *112:8 9.53447e-05
42 *18:36 *250:83 0.000859327
43 *18:36 *252:93 0.000203993
44 *18:36 *261:11 0.000264612
45 *18:36 *271:19 0.000469052
46 *18:36 *271:25 0.000645483
47 *367:DIODE *887:B1 0.000245307
*RES
1 *886:Y *18:4 9.24915 
2 *18:4 *18:7 12.9878 
3 *18:7 *898:A2 17.829 
4 *18:7 *1059:A0 15.1659 
5 *18:4 *18:27 13.4319 
6 *18:27 *18:36 28.591 
7 *18:36 *887:B1 35.5538 
8 *18:36 *902:A2 9.24915 
9 *18:27 *900:A2 15.0271 
*END

*D_NET *19 0.00158774
*CONN
*I *1169:A I *D sky130_fd_sc_hd__dlygate4sd1_1
*I *1066:A0 I *D sky130_fd_sc_hd__mux2_4
*I *955:Y O *D sky130_fd_sc_hd__nand2_2
*CAP
1 *1169:A 0.000256519
2 *1066:A0 0.000144334
3 *955:Y 0.000194021
4 *19:8 0.000594874
5 *1066:A0 *41:7 0.000183669
6 *1169:A *169:17 4.6753e-05
7 *19:8 *950:A 0.000122378
8 *19:8 *955:A 1.41291e-05
9 *19:8 *169:17 3.10668e-05
10 *19:8 *245:57 0
*RES
1 *955:Y *19:8 18.6595 
2 *19:8 *1066:A0 18.3548 
3 *19:8 *1169:A 20.1489 
*END

*D_NET *20 0.0010238
*CONN
*I *1168:A I *D sky130_fd_sc_hd__buf_2
*I *906:C I *D sky130_fd_sc_hd__nand3b_1
*I *1059:X O *D sky130_fd_sc_hd__mux2_1
*CAP
1 *1168:A 0
2 *906:C 0.00011404
3 *1059:X 0.000174862
4 *20:9 0.000288902
5 *906:C *906:A_N 5.74331e-05
6 *906:C *1134:D 6.27782e-05
7 *906:C *299:15 0.000218211
8 *20:9 *1134:D 6.88795e-05
9 *20:9 *116:8 3.8697e-05
*RES
1 *1059:X *20:9 23.2989 
2 *20:9 *906:C 13.903 
3 *20:9 *1168:A 9.24915 
*END

*D_NET *21 0.00459401
*CONN
*I *1165:A I *D sky130_fd_sc_hd__buf_6
*I *965:C I *D sky130_fd_sc_hd__nand3b_1
*I *1066:X O *D sky130_fd_sc_hd__mux2_4
*CAP
1 *1165:A 0
2 *965:C 0.000378656
3 *1066:X 0.000773108
4 *21:17 0.00115176
5 *965:C *949:A 1.49697e-05
6 *965:C *964:A2 0
7 *965:C *965:B 2.40774e-05
8 *965:C *245:76 0.000452679
9 *965:C *292:7 3.53797e-05
10 *965:C *300:105 0.000209388
11 *21:17 *975:B 0.000158371
12 *21:17 *984:A2 0.000386394
13 *21:17 *985:B 0.000121437
14 *21:17 *999:B 5.41377e-05
15 *21:17 *1054:A1 1.09738e-05
16 *21:17 *175:8 5.41227e-05
17 *21:17 *224:82 9.2346e-06
18 *21:17 *245:64 0.000218405
19 *21:17 *245:68 0.000372213
20 *21:17 *245:76 0.000168699
*RES
1 *1066:X *21:17 38.2384 
2 *21:17 *965:C 29.1959 
3 *21:17 *1165:A 9.24915 
*END

*D_NET *22 0.000578061
*CONN
*I *990:A0 I *D sky130_fd_sc_hd__mux2_1
*I *1069:X O *D sky130_fd_sc_hd__mux2_1
*CAP
1 *990:A0 0.000106631
2 *1069:X 0.000106631
3 *990:A0 *342:DIODE 0.000101133
4 *990:A0 *224:126 0.000163418
5 *990:A0 *227:10 9.65752e-06
6 *990:A0 *227:12 2.69435e-05
7 *990:A0 *227:41 6.36477e-05
*RES
1 *1069:X *990:A0 31.1629 
*END

*D_NET *23 0.00117474
*CONN
*I *988:A0 I *D sky130_fd_sc_hd__mux2_1
*I *1072:X O *D sky130_fd_sc_hd__mux2_1
*CAP
1 *988:A0 0.000486388
2 *1072:X 0.000486388
3 *988:A0 *986:B 4.31539e-05
4 *988:A0 *1032:B 0
5 *988:A0 *1072:A1 7.30231e-05
6 *988:A0 *191:11 5.98894e-06
7 *988:A0 *228:12 0
8 *988:A0 *228:17 7.97944e-05
*RES
1 *1072:X *988:A0 35.7391 
*END

*D_NET *24 0.00083262
*CONN
*I *1007:B I *D sky130_fd_sc_hd__nand2_1
*I *1055:X O *D sky130_fd_sc_hd__mux2_1
*CAP
1 *1007:B 0.000168611
2 *1055:X 0.000168611
3 *1007:B *1003:A 0.000216467
4 *1007:B *1055:A0 0
5 *1007:B *153:17 0.000220665
6 *1007:B *238:21 4.41363e-05
7 *1007:B *245:68 1.41307e-05
*RES
1 *1055:X *1007:B 32.8561 
*END

*D_NET *25 0.00344805
*CONN
*I *1004:B I *D sky130_fd_sc_hd__nand2_1
*I *1051:X O *D sky130_fd_sc_hd__mux2_1
*CAP
1 *1004:B 0.00162368
2 *1051:X 0.00162368
3 *1004:B *981:B 0
4 *1004:B *1024:B 0.000113077
5 *1004:B *1050:A0 0
6 *1004:B *226:26 0
7 *1004:B *231:17 1.61138e-05
8 *1004:B *300:127 7.15004e-05
*RES
1 *1051:X *1004:B 40.4083 
*END

*D_NET *26 0.000478301
*CONN
*I *1001:B I *D sky130_fd_sc_hd__nand2_1
*I *1076:X O *D sky130_fd_sc_hd__mux2_1
*CAP
1 *1001:B 0.000121093
2 *1076:X 0.000121093
3 *1001:B *979:A 0.000120967
4 *1001:B *1054:S 4.11567e-05
5 *1001:B *171:13 6.36477e-05
6 *1001:B *226:29 1.03434e-05
*RES
1 *1076:X *1001:B 22.5975 
*END

*D_NET *27 0.00124885
*CONN
*I *961:A1 I *D sky130_fd_sc_hd__a21bo_1
*I *1074:X O *D sky130_fd_sc_hd__mux2_1
*CAP
1 *961:A1 0.000264634
2 *1074:X 0.000264634
3 *961:A1 *346:DIODE 0.00028913