*SPEF "ieee 1481-1999"
*DESIGN "digital_pll"
*DATE "11:11:11 Fri 11 11, 1111"
*VENDOR "OpenRCX"
*PROGRAM "Parallel Extraction"
*VERSION "1.0"
*DESIGN_FLOW "NAME_SCOPE LOCAL" "PIN_CAP NONE"
*DIVIDER /
*DELIMITER :
*BUS_DELIMITER []
*T_UNIT 1 NS
*C_UNIT 1 PF
*R_UNIT 1 OHM
*L_UNIT 1 HENRY

*NAME_MAP
*3 clockp[0]
*4 clockp[1]
*5 dco
*6 div[0]
*7 div[1]
*8 div[2]
*9 div[3]
*10 div[4]
*11 enable
*12 ext_trim[0]
*13 ext_trim[10]
*14 ext_trim[11]
*15 ext_trim[12]
*16 ext_trim[13]
*17 ext_trim[14]
*18 ext_trim[15]
*19 ext_trim[16]
*20 ext_trim[17]
*21 ext_trim[18]
*22 ext_trim[19]
*23 ext_trim[1]
*24 ext_trim[20]
*25 ext_trim[21]
*26 ext_trim[22]
*27 ext_trim[23]
*28 ext_trim[24]
*29 ext_trim[25]
*30 ext_trim[2]
*31 ext_trim[3]
*32 ext_trim[4]
*33 ext_trim[5]
*34 ext_trim[6]
*35 ext_trim[7]
*36 ext_trim[8]
*37 ext_trim[9]
*38 osc
*39 resetb
*40 _000_
*41 _001_
*42 _002_
*43 _003_
*44 _004_
*45 _005_
*46 _006_
*47 _007_
*48 _008_
*49 _009_
*50 _010_
*51 _011_
*52 _012_
*53 _013_
*54 _014_
*55 _015_
*56 _016_
*57 _017_
*58 _018_
*59 _019_
*60 _020_
*61 _021_
*62 _022_
*63 _023_
*64 _024_
*65 _025_
*66 _026_
*67 _027_
*68 _028_
*69 _029_
*70 _030_
*71 _031_
*72 _032_
*73 _033_
*74 _034_
*75 _035_
*76 _036_
*77 _037_
*78 _038_
*79 _039_
*80 _040_
*81 _041_
*82 _042_
*83 _043_
*84 _044_
*85 _045_
*86 _046_
*87 _047_
*88 _048_
*89 _049_
*90 _050_
*91 _051_
*92 _052_
*93 _053_
*94 _054_
*95 _055_
*96 _056_
*97 _057_
*98 _058_
*99 _059_
*100 _060_
*101 _061_
*102 _062_
*103 _063_
*104 _064_
*105 _065_
*106 _066_
*107 _067_
*108 _068_
*109 _069_
*110 _070_
*111 _071_
*112 _072_
*113 _073_
*114 _074_
*115 _075_
*116 _076_
*117 _077_
*118 _078_
*119 _079_
*120 _080_
*121 _081_
*122 _082_
*123 _083_
*124 _084_
*125 _085_
*126 _086_
*127 _087_
*128 _088_
*129 _089_
*130 _090_
*131 _091_
*132 _092_
*133 _093_
*134 _094_
*135 _095_
*136 _096_
*137 _097_
*138 _098_
*139 _099_
*140 _100_
*141 _101_
*142 _102_
*143 _103_
*144 _104_
*145 _105_
*146 _106_
*147 _107_
*148 _108_
*149 _109_
*150 _110_
*151 _111_
*152 _112_
*153 _113_
*154 _114_
*155 _115_
*156 _116_
*157 _117_
*158 _118_
*159 _119_
*160 _120_
*161 _121_
*162 _122_
*163 _123_
*164 _124_
*165 _125_
*166 _126_
*167 _127_
*168 _128_
*169 _129_
*170 _130_
*171 _131_
*172 _132_
*173 _133_
*174 _134_
*175 _135_
*176 _136_
*177 _137_
*178 _138_
*179 _139_
*180 _140_
*181 _141_
*182 _142_
*183 _143_
*184 _144_
*185 _145_
*186 _146_
*187 _147_
*188 _148_
*189 _149_
*190 _150_
*191 _151_
*192 _152_
*193 _153_
*194 _154_
*195 _155_
*196 _156_
*197 _157_
*198 _158_
*199 _159_
*200 _160_
*201 _161_
*202 _162_
*203 _163_
*204 pll_control\.clock
*205 pll_control\.count0\[0\]
*206 pll_control\.count0\[1\]
*207 pll_control\.count0\[2\]
*208 pll_control\.count0\[3\]
*209 pll_control\.count0\[4\]
*210 pll_control\.count1\[0\]
*211 pll_control\.count1\[1\]
*212 pll_control\.count1\[2\]
*213 pll_control\.count1\[3\]
*214 pll_control\.count1\[4\]
*215 pll_control\.oscbuf\[0\]
*216 pll_control\.oscbuf\[1\]
*217 pll_control\.oscbuf\[2\]
*218 pll_control\.prep\[0\]
*219 pll_control\.prep\[1\]
*220 pll_control\.prep\[2\]
*221 pll_control\.tint\[0\]
*222 pll_control\.tint\[1\]
*223 pll_control\.tint\[2\]
*224 pll_control\.tint\[3\]
*225 pll_control\.tint\[4\]
*226 pll_control\.tval\[0\]
*227 pll_control\.tval\[1\]
*228 ringosc\.c\[0\]
*229 ringosc\.c\[1\]
*230 ringosc\.dstage\[0\]\.id\.d0
*231 ringosc\.dstage\[0\]\.id\.d1
*232 ringosc\.dstage\[0\]\.id\.d2
*233 ringosc\.dstage\[0\]\.id\.in
*234 ringosc\.dstage\[0\]\.id\.out
*235 ringosc\.dstage\[0\]\.id\.trim\[0\]
*236 ringosc\.dstage\[0\]\.id\.trim\[1\]
*237 ringosc\.dstage\[0\]\.id\.ts
*238 ringosc\.dstage\[10\]\.id\.d0
*239 ringosc\.dstage\[10\]\.id\.d1
*240 ringosc\.dstage\[10\]\.id\.d2
*241 ringosc\.dstage\[10\]\.id\.in
*242 ringosc\.dstage\[10\]\.id\.out
*243 ringosc\.dstage\[10\]\.id\.trim\[0\]
*244 ringosc\.dstage\[10\]\.id\.trim\[1\]
*245 ringosc\.dstage\[10\]\.id\.ts
*246 ringosc\.dstage\[11\]\.id\.d0
*247 ringosc\.dstage\[11\]\.id\.d1
*248 ringosc\.dstage\[11\]\.id\.d2
*249 ringosc\.dstage\[11\]\.id\.out
*250 ringosc\.dstage\[11\]\.id\.trim\[0\]
*251 ringosc\.dstage\[11\]\.id\.trim\[1\]
*252 ringosc\.dstage\[11\]\.id\.ts
*253 ringosc\.dstage\[1\]\.id\.d0
*254 ringosc\.dstage\[1\]\.id\.d1
*255 ringosc\.dstage\[1\]\.id\.d2
*256 ringosc\.dstage\[1\]\.id\.out
*257 ringosc\.dstage\[1\]\.id\.trim\[0\]
*258 ringosc\.dstage\[1\]\.id\.trim\[1\]
*259 ringosc\.dstage\[1\]\.id\.ts
*260 ringosc\.dstage\[2\]\.id\.d0
*261 ringosc\.dstage\[2\]\.id\.d1
*262 ringosc\.dstage\[2\]\.id\.d2
*263 ringosc\.dstage\[2\]\.id\.out
*264 ringosc\.dstage\[2\]\.id\.trim\[0\]
*265 ringosc\.dstage\[2\]\.id\.trim\[1\]
*266 ringosc\.dstage\[2\]\.id\.ts
*267 ringosc\.dstage\[3\]\.id\.d0
*268 ringosc\.dstage\[3\]\.id\.d1
*269 ringosc\.dstage\[3\]\.id\.d2
*270 ringosc\.dstage\[3\]\.id\.out
*271 ringosc\.dstage\[3\]\.id\.trim\[0\]
*272 ringosc\.dstage\[3\]\.id\.trim\[1\]
*273 ringosc\.dstage\[3\]\.id\.ts
*274 ringosc\.dstage\[4\]\.id\.d0
*275 ringosc\.dstage\[4\]\.id\.d1
*276 ringosc\.dstage\[4\]\.id\.d2
*277 ringosc\.dstage\[4\]\.id\.out
*278 ringosc\.dstage\[4\]\.id\.trim\[0\]
*279 ringosc\.dstage\[4\]\.id\.trim\[1\]
*280 ringosc\.dstage\[4\]\.id\.ts
*281 ringosc\.dstage\[5\]\.id\.d0
*282 ringosc\.dstage\[5\]\.id\.d1
*283 ringosc\.dstage\[5\]\.id\.d2
*284 ringosc\.dstage\[5\]\.id\.out
*285 ringosc\.dstage\[5\]\.id\.trim\[0\]
*286 ringosc\.dstage\[5\]\.id\.trim\[1\]
*287 ringosc\.dstage\[5\]\.id\.ts
*288 ringosc\.dstage\[6\]\.id\.d0
*289 ringosc\.dstage\[6\]\.id\.d1
*290 ringosc\.dstage\[6\]\.id\.d2
*291 ringosc\.dstage\[6\]\.id\.out
*292 ringosc\.dstage\[6\]\.id\.trim\[0\]
*293 ringosc\.dstage\[6\]\.id\.trim\[1\]
*294 ringosc\.dstage\[6\]\.id\.ts
*295 ringosc\.dstage\[7\]\.id\.d0
*296 ringosc\.dstage\[7\]\.id\.d1
*297 ringosc\.dstage\[7\]\.id\.d2
*298 ringosc\.dstage\[7\]\.id\.out
*299 ringosc\.dstage\[7\]\.id\.trim\[0\]
*300 ringosc\.dstage\[7\]\.id\.trim\[1\]
*301 ringosc\.dstage\[7\]\.id\.ts
*302 ringosc\.dstage\[8\]\.id\.d0
*303 ringosc\.dstage\[8\]\.id\.d1
*304 ringosc\.dstage\[8\]\.id\.d2
*305 ringosc\.dstage\[8\]\.id\.out
*306 ringosc\.dstage\[8\]\.id\.trim\[0\]
*307 ringosc\.dstage\[8\]\.id\.trim\[1\]
*308 ringosc\.dstage\[8\]\.id\.ts
*309 ringosc\.dstage\[9\]\.id\.d0
*310 ringosc\.dstage\[9\]\.id\.d1
*311 ringosc\.dstage\[9\]\.id\.d2
*312 ringosc\.dstage\[9\]\.id\.trim\[0\]
*313 ringosc\.dstage\[9\]\.id\.trim\[1\]
*314 ringosc\.dstage\[9\]\.id\.ts
*315 ringosc\.iss\.ctrl0
*316 ringosc\.iss\.d0
*317 ringosc\.iss\.d1
*318 ringosc\.iss\.d2
*319 ringosc\.iss\.one
*320 ringosc\.iss\.reset
*321 ringosc\.iss\.trim\[0\]
*322 ringosc\.iss\.trim\[1\]
*323 ANTENNA__177__A
*324 ANTENNA__181__A
*325 ANTENNA__181__B
*326 ANTENNA__182__A
*327 ANTENNA__201__A1
*328 ANTENNA__201__B1
*329 ANTENNA__202__A
*330 ANTENNA__204__A1
*331 ANTENNA__207__A
*332 ANTENNA__210__A1
*333 ANTENNA__210__B1
*334 ANTENNA__211__A1
*335 ANTENNA__216__A
*336 ANTENNA__218__B1
*337 ANTENNA__330__A1
*338 ANTENNA__330__S
*339 ANTENNA__331__A1
*340 ANTENNA__331__S
*341 ANTENNA__332__A1
*342 ANTENNA__332__S
*343 ANTENNA__333__A1
*344 ANTENNA__333__S
*345 ANTENNA__334__A1
*346 ANTENNA__334__S
*347 ANTENNA__335__A1
*348 ANTENNA__335__S
*349 ANTENNA__336__A1
*350 ANTENNA__336__S
*351 ANTENNA__337__A1
*352 ANTENNA__337__S
*353 ANTENNA__338__A1
*354 ANTENNA__338__S
*355 ANTENNA__339__A1
*356 ANTENNA__339__S
*357 ANTENNA__340__A1
*358 ANTENNA__340__S
*359 ANTENNA__341__A1
*360 ANTENNA__341__S
*361 ANTENNA__342__A1
*362 ANTENNA__342__S
*363 ANTENNA__343__A1
*364 ANTENNA__343__S
*365 ANTENNA__344__A1
*366 ANTENNA__344__S
*367 ANTENNA__345__A1
*368 ANTENNA__345__S
*369 ANTENNA__346__A1
*370 ANTENNA__346__S
*371 ANTENNA__347__A1
*372 ANTENNA__347__S
*373 ANTENNA__348__A1
*374 ANTENNA__348__S
*375 ANTENNA__349__A1
*376 ANTENNA__349__S
*377 ANTENNA__350__A1
*378 ANTENNA__350__S
*379 ANTENNA__351__A1
*380 ANTENNA__351__S
*381 ANTENNA__352__A1
*382 ANTENNA__352__S
*383 ANTENNA__353__A1
*384 ANTENNA__353__S
*385 ANTENNA__354__A1
*386 ANTENNA__354__S
*387 ANTENNA__355__A1
*388 ANTENNA__355__S
*389 ANTENNA__356__D
*390 FILLER_0_10
*391 FILLER_0_105
*392 FILLER_0_19
*393 FILLER_0_3
*394 FILLER_0_37
*395 FILLER_0_52
*396 FILLER_0_62
*397 FILLER_0_66
*398 FILLER_0_70
*399 FILLER_0_82
*400 FILLER_0_93
*401 FILLER_10_10
*402 FILLER_10_104
*403 FILLER_10_19
*404 FILLER_10_27
*405 FILLER_10_36
*406 FILLER_10_7
*407 FILLER_10_94
*408 FILLER_11_101
*409 FILLER_11_111
*410 FILLER_11_130
*411 FILLER_11_23
*412 FILLER_11_32
*413 FILLER_11_38
*414 FILLER_11_50
*415 FILLER_11_57
*416 FILLER_11_77
*417 FILLER_12_101
*418 FILLER_12_105
*419 FILLER_12_19
*420 FILLER_12_27
*421 FILLER_12_39
*422 FILLER_12_48
*423 FILLER_12_68
*424 FILLER_12_80
*425 FILLER_13_134
*426 FILLER_13_34
*427 FILLER_13_54
*428 FILLER_14_112
*429 FILLER_14_13
*430 FILLER_14_3
*431 FILLER_14_43
*432 FILLER_14_63
*433 FILLER_14_81
*434 FILLER_14_85
*435 FILLER_15_109
*436 FILLER_15_24
*437 FILLER_15_39
*438 FILLER_15_5
*439 FILLER_15_53
*440 FILLER_15_67
*441 FILLER_15_76
*442 FILLER_15_93
*443 FILLER_16_115
*444 FILLER_16_135
*445 FILLER_16_23
*446 FILLER_16_27
*447 FILLER_16_32
*448 FILLER_16_59
*449 FILLER_16_7
*450 FILLER_16_72
*451 FILLER_16_94
*452 FILLER_16_98
*453 FILLER_17_100
*454 FILLER_17_12
*455 FILLER_17_30
*456 FILLER_18_112
*457 FILLER_18_134
*458 FILLER_18_26
*459 FILLER_18_49
*460 FILLER_18_75
*461 FILLER_18_96
*462 FILLER_19_100
*463 FILLER_19_120
*464 FILLER_19_135
*465 FILLER_19_28
*466 FILLER_19_55
*467 FILLER_19_68
*468 FILLER_19_87
*469 FILLER_1_111
*470 FILLER_1_134
*471 FILLER_1_54
*472 FILLER_1_78
*473 FILLER_20_112
*474 FILLER_20_134
*475 FILLER_20_38
*476 FILLER_20_5
*477 FILLER_21_104
*478 FILLER_21_135
*479 FILLER_21_21
*480 FILLER_21_55
*481 FILLER_21_69
*482 FILLER_22_133
*483 FILLER_22_3
*484 FILLER_22_31
*485 FILLER_22_42
*486 FILLER_22_7
*487 FILLER_22_72
*488 FILLER_2_120
*489 FILLER_2_134
*490 FILLER_2_18
*491 FILLER_2_5
*492 FILLER_2_78
*493 FILLER_3_111
*494 FILLER_3_113
*495 FILLER_3_28
*496 FILLER_3_3
*497 FILLER_3_33
*498 FILLER_3_37
*499 FILLER_3_48
*500 FILLER_3_57
*501 FILLER_3_71
*502 FILLER_3_94
*503 FILLER_4_120
*504 FILLER_4_129
*505 FILLER_4_135
*506 FILLER_4_58
*507 FILLER_4_81
*508 FILLER_5_103
*509 FILLER_5_134
*510 FILLER_5_19
*511 FILLER_5_32
*512 FILLER_5_57
*513 FILLER_5_69
*514 FILLER_6_100
*515 FILLER_6_122
*516 FILLER_6_134
*517 FILLER_6_17
*518 FILLER_6_27
*519 FILLER_6_3
*520 FILLER_6_38
*521 FILLER_6_53
*522 FILLER_6_62
*523 FILLER_6_71
*524 FILLER_6_83
*525 FILLER_6_88
*526 FILLER_7_103
*527 FILLER_7_116
*528 FILLER_7_127
*529 FILLER_7_135
*530 FILLER_7_39
*531 FILLER_7_81
*532 FILLER_7_90
*533 FILLER_7_96
*534 FILLER_8_27
*535 FILLER_8_29
*536 FILLER_8_51
*537 FILLER_8_63
*538 FILLER_8_69
*539 FILLER_9_113
*540 FILLER_9_27
*541 FILLER_9_47
*542 FILLER_9_5
*543 FILLER_9_52
*544 FILLER_9_78
*545 FILLER_9_87
*546 PHY_0
*547 PHY_1
*548 PHY_10
*549 PHY_11
*550 PHY_12
*551 PHY_13
*552 PHY_14
*553 PHY_15
*554 PHY_16
*555 PHY_17
*556 PHY_18
*557 PHY_19
*558 PHY_2
*559 PHY_20
*560 PHY_21
*561 PHY_22
*562 PHY_23
*563 PHY_24
*564 PHY_25
*565 PHY_26
*566 PHY_27
*567 PHY_28
*568 PHY_29
*569 PHY_3
*570 PHY_30
*571 PHY_31
*572 PHY_32
*573 PHY_33
*574 PHY_34
*575 PHY_35
*576 PHY_36
*577 PHY_37
*578 PHY_38
*579 PHY_39
*580 PHY_4
*581 PHY_40
*582 PHY_41
*583 PHY_42
*584 PHY_43
*585 PHY_44
*586 PHY_45
*587 PHY_5
*588 PHY_6
*589 PHY_7
*590 PHY_8
*591 PHY_9
*592 TAP_46
*593 TAP_47
*594 TAP_48
*595 TAP_49
*596 TAP_50
*597 TAP_51
*598 TAP_52
*599 TAP_53
*600 TAP_54
*601 TAP_55
*602 TAP_56
*603 TAP_57
*604 TAP_58
*605 TAP_59
*606 TAP_60
*607 TAP_61
*608 TAP_62
*609 TAP_63
*610 TAP_64
*611 TAP_65
*612 TAP_66
*613 TAP_67
*614 TAP_68
*615 TAP_69
*616 TAP_70
*617 TAP_71
*618 TAP_72
*619 TAP_73
*620 TAP_74
*621 TAP_75
*622 TAP_76
*623 TAP_77
*624 TAP_78
*625 TAP_79
*626 TAP_80
*627 TAP_81
*628 TAP_82
*629 TAP_83
*630 TAP_84
*631 TAP_85
*632 TAP_86
*633 TAP_87
*634 TAP_88
*635 TAP_89
*636 TAP_90
*637 TAP_91
*638 TAP_92
*639 TAP_93
*640 TAP_94
*641 TAP_95
*642 _164_
*643 _165_
*644 _166_
*645 _167_
*646 _168_
*647 _169_
*648 _170_
*649 _171_
*650 _172_
*651 _173_
*652 _174_
*653 _175_
*654 _176_
*655 _177_
*656 _178_
*657 _179_
*658 _180_
*659 _181_
*660 _182_
*661 _183_
*662 _184_
*663 _185_
*664 _186_
*665 _187_
*666 _188_
*667 _189_
*668 _190_
*669 _191_
*670 _192_
*671 _193_
*672 _194_
*673 _195_
*674 _196_
*675 _197_
*676 _198_
*677 _199_
*678 _200_
*679 _201_
*680 _202_
*681 _203_
*682 _204_
*683 _205_
*684 _206_
*685 _207_
*686 _208_
*687 _209_
*688 _210_
*689 _211_
*690 _212_
*691 _213_
*692 _214_
*693 _215_
*694 _216_
*695 _217_
*696 _218_
*697 _219_
*698 _220_
*699 _221_
*700 _222_
*701 _223_
*702 _224_
*703 _225_
*704 _226_
*705 _227_
*706 _228_
*707 _229_
*708 _230_
*709 _231_
*710 _232_
*711 _233_
*712 _234_
*713 _235_
*714 _236_
*715 _237_
*716 _238_
*717 _239_
*718 _240_
*719 _241_
*720 _242_
*721 _243_
*722 _244_
*723 _245_
*724 _246_
*725 _247_
*726 _248_
*727 _249_
*728 _250_
*729 _251_
*730 _252_
*731 _253_
*732 _254_
*733 _255_
*734 _256_
*735 _257_
*736 _258_
*737 _259_
*738 _260_
*739 _261_
*740 _262_
*741 _263_
*742 _264_
*743 _265_
*744 _266_
*745 _267_
*746 _268_
*747 _269_
*748 _270_
*749 _271_
*750 _272_
*751 _273_
*752 _274_
*753 _275_
*754 _276_
*755 _277_
*756 _278_
*757 _279_
*758 _280_
*759 _281_
*760 _282_
*761 _283_
*762 _284_
*763 _285_
*764 _286_
*765 _287_
*766 _288_
*767 _289_
*768 _290_
*769 _291_
*770 _292_
*771 _293_
*772 _294_
*773 _295_
*774 _296_
*775 _297_
*776 _298_
*777 _299_
*778 _300_
*779 _301_
*780 _302_
*781 _303_
*782 _304_
*783 _305_
*784 _306_
*785 _307_
*786 _308_
*787 _309_
*788 _310_
*789 _311_
*790 _312_
*791 _313_
*792 _314_
*793 _315_
*794 _316_
*795 _317_
*796 _318_
*797 _319_
*798 _320_
*799 _321_
*800 _322_
*801 _323_
*802 _324_
*803 _325_
*804 _326_
*805 _327_
*806 _328_
*807 _329_
*808 _330_
*809 _331_
*810 _332_
*811 _333_
*812 _334_
*813 _335_
*814 _336_
*815 _337_
*816 _338_
*817 _339_
*818 _340_
*819 _341_
*820 _342_
*821 _343_
*822 _344_
*823 _345_
*824 _346_
*825 _347_
*826 _348_
*827 _349_
*828 _350_
*829 _351_
*830 _352_
*831 _353_
*832 _354_
*833 _355_
*834 _356_
*835 _357_
*836 _358_
*837 _359_
*838 _360_
*839 _361_
*840 _362_
*841 _363_
*842 _364_
*843 _365_
*844 _366_
*845 _367_
*846 _368_
*847 _369_
*848 _370_
*849 _371_
*850 _372_
*851 _373_
*852 _374_
*853 _375_
*854 _376_
*855 _377_
*856 _378_
*857 ringosc\.dstage\[0\]\.id\.delaybuf0
*858 ringosc\.dstage\[0\]\.id\.delaybuf1
*859 ringosc\.dstage\[0\]\.id\.delayen0
*860 ringosc\.dstage\[0\]\.id\.delayen1
*861 ringosc\.dstage\[0\]\.id\.delayenb0
*862 ringosc\.dstage\[0\]\.id\.delayenb1
*863 ringosc\.dstage\[0\]\.id\.delayint0
*864 ringosc\.dstage\[10\]\.id\.delaybuf0
*865 ringosc\.dstage\[10\]\.id\.delaybuf1
*866 ringosc\.dstage\[10\]\.id\.delayen0
*867 ringosc\.dstage\[10\]\.id\.delayen1
*868 ringosc\.dstage\[10\]\.id\.delayenb0
*869 ringosc\.dstage\[10\]\.id\.delayenb1
*870 ringosc\.dstage\[10\]\.id\.delayint0
*871 ringosc\.dstage\[11\]\.id\.delaybuf0
*872 ringosc\.dstage\[11\]\.id\.delaybuf1
*873 ringosc\.dstage\[11\]\.id\.delayen0
*874 ringosc\.dstage\[11\]\.id\.delayen1
*875 ringosc\.dstage\[11\]\.id\.delayenb0
*876 ringosc\.dstage\[11\]\.id\.delayenb1
*877 ringosc\.dstage\[11\]\.id\.delayint0
*878 ringosc\.dstage\[1\]\.id\.delaybuf0
*879 ringosc\.dstage\[1\]\.id\.delaybuf1
*880 ringosc\.dstage\[1\]\.id\.delayen0
*881 ringosc\.dstage\[1\]\.id\.delayen1
*882 ringosc\.dstage\[1\]\.id\.delayenb0
*883 ringosc\.dstage\[1\]\.id\.delayenb1
*884 ringosc\.dstage\[1\]\.id\.delayint0
*885 ringosc\.dstage\[2\]\.id\.delaybuf0
*886 ringosc\.dstage\[2\]\.id\.delaybuf1
*887 ringosc\.dstage\[2\]\.id\.delayen0
*888 ringosc\.dstage\[2\]\.id\.delayen1
*889 ringosc\.dstage\[2\]\.id\.delayenb0
*890 ringosc\.dstage\[2\]\.id\.delayenb1
*891 ringosc\.dstage\[2\]\.id\.delayint0
*892 ringosc\.dstage\[3\]\.id\.delaybuf0
*893 ringosc\.dstage\[3\]\.id\.delaybuf1
*894 ringosc\.dstage\[3\]\.id\.delayen0
*895 ringosc\.dstage\[3\]\.id\.delayen1
*896 ringosc\.dstage\[3\]\.id\.delayenb0
*897 ringosc\.dstage\[3\]\.id\.delayenb1
*898 ringosc\.dstage\[3\]\.id\.delayint0
*899 ringosc\.dstage\[4\]\.id\.delaybuf0
*900 ringosc\.dstage\[4\]\.id\.delaybuf1
*901 ringosc\.dstage\[4\]\.id\.delayen0
*902 ringosc\.dstage\[4\]\.id\.delayen1
*903 ringosc\.dstage\[4\]\.id\.delayenb0
*904 ringosc\.dstage\[4\]\.id\.delayenb1
*905 ringosc\.dstage\[4\]\.id\.delayint0
*906 ringosc\.dstage\[5\]\.id\.delaybuf0
*907 ringosc\.dstage\[5\]\.id\.delaybuf1
*908 ringosc\.dstage\[5\]\.id\.delayen0
*909 ringosc\.dstage\[5\]\.id\.delayen1
*910 ringosc\.dstage\[5\]\.id\.delayenb0
*911 ringosc\.dstage\[5\]\.id\.delayenb1
*912 ringosc\.dstage\[5\]\.id\.delayint0
*913 ringosc\.dstage\[6\]\.id\.delaybuf0
*914 ringosc\.dstage\[6\]\.id\.delaybuf1
*915 ringosc\.dstage\[6\]\.id\.delayen0
*916 ringosc\.dstage\[6\]\.id\.delayen1
*917 ringosc\.dstage\[6\]\.id\.delayenb0
*918 ringosc\.dstage\[6\]\.id\.delayenb1
*919 ringosc\.dstage\[6\]\.id\.delayint0
*920 ringosc\.dstage\[7\]\.id\.delaybuf0
*921 ringosc\.dstage\[7\]\.id\.delaybuf1
*922 ringosc\.dstage\[7\]\.id\.delayen0
*923 ringosc\.dstage\[7\]\.id\.delayen1
*924 ringosc\.dstage\[7\]\.id\.delayenb0
*925 ringosc\.dstage\[7\]\.id\.delayenb1
*926 ringosc\.dstage\[7\]\.id\.delayint0
*927 ringosc\.dstage\[8\]\.id\.delaybuf0
*928 ringosc\.dstage\[8\]\.id\.delaybuf1
*929 ringosc\.dstage\[8\]\.id\.delayen0
*930 ringosc\.dstage\[8\]\.id\.delayen1
*931 ringosc\.dstage\[8\]\.id\.delayenb0
*932 ringosc\.dstage\[8\]\.id\.delayenb1
*933 ringosc\.dstage\[8\]\.id\.delayint0
*934 ringosc\.dstage\[9\]\.id\.delaybuf0
*935 ringosc\.dstage\[9\]\.id\.delaybuf1
*936 ringosc\.dstage\[9\]\.id\.delayen0
*937 ringosc\.dstage\[9\]\.id\.delayen1
*938 ringosc\.dstage\[9\]\.id\.delayenb0
*939 ringosc\.dstage\[9\]\.id\.delayenb1
*940 ringosc\.dstage\[9\]\.id\.delayint0
*941 ringosc\.ibufp00
*942 ringosc\.ibufp01
*943 ringosc\.ibufp10
*944 ringosc\.ibufp11
*945 ringosc\.iss\.const1
*946 ringosc\.iss\.ctrlen0
*947 ringosc\.iss\.delaybuf0
*948 ringosc\.iss\.delayen0
*949 ringosc\.iss\.delayen1
*950 ringosc\.iss\.delayenb0
*951 ringosc\.iss\.delayenb1
*952 ringosc\.iss\.delayint0
*953 ringosc\.iss\.reseten0

*PORTS
clockp[0] O
clockp[1] O
dco I
div[0] I
div[1] I
div[2] I
div[3] I
div[4] I
enable I
ext_trim[0] I
ext_trim[10] I
ext_trim[11] I
ext_trim[12] I
ext_trim[13] I
ext_trim[14] I
ext_trim[15] I
ext_trim[16] I
ext_trim[17] I
ext_trim[18] I
ext_trim[19] I
ext_trim[1] I
ext_trim[20] I
ext_trim[21] I
ext_trim[22] I
ext_trim[23] I
ext_trim[24] I
ext_trim[25] I
ext_trim[2] I
ext_trim[3] I
ext_trim[4] I
ext_trim[5] I
ext_trim[6] I
ext_trim[7] I
ext_trim[8] I
ext_trim[9] I
osc I
resetb I

*D_NET *3 0.000789648
*CONN
*P clockp[0] O
*I *806:X O *D sky130_fd_sc_hd__buf_2
*CAP
1 clockp[0] 0.000394824
2 *806:X 0.000394824
3 clockp[0] clockp[1] 0
*RES
1 *806:X clockp[0] 22.4772 
*END

*D_NET *4 0.00597287
*CONN
*P clockp[1] O
*I *944:Y O *D sky130_fd_sc_hd__clkinv_8
*CAP
1 clockp[1] 0.0013368
2 *944:Y 0.000595063
3 *4:10 0.00193187
4 clockp[1] *655:A 2.652e-05
5 clockp[1] *661:B1 0.000225835
6 clockp[1] *662:B2 0
7 clockp[1] *679:B2 0.00028516
8 clockp[1] *692:A 3.88655e-06
9 clockp[1] *692:B 0
10 clockp[1] *693:A2 2.18741e-05
11 clockp[1] *854:D 3.58321e-05
12 clockp[1] *854:RESET_B 7.58739e-05
13 clockp[1] *6:7 0
14 clockp[1] *6:36 4.73136e-05
15 clockp[1] *39:11 0
16 clockp[1] *90:55 4.3116e-06
17 clockp[1] *127:55 0
18 clockp[1] *137:10 0
19 clockp[1] *138:6 0.000367831
20 clockp[1] *140:8 0
21 *4:10 *643:A 0
22 *4:10 *690:B1 6.89317e-05
23 *4:10 *690:B2 0.000125695
24 *4:10 *692:A 6.17553e-05
25 *4:10 *805:A 7.06307e-05
26 *4:10 *856:D 0
27 *4:10 *5:22 0.000330596
28 *4:10 *39:11 0
29 *4:10 *113:8 0.00035709
30 clockp[0] clockp[1] 0
*RES
1 *944:Y *4:10 31.2298 
2 *4:10 clockp[1] 28.8458 
*END

*D_NET *5 0.0446753
*CONN
*P dco I
*I *370:DIODE I *D sky130_fd_sc_hd__diode_2
*I *824:S I *D sky130_fd_sc_hd__mux2_1
*I *346:DIODE I *D sky130_fd_sc_hd__diode_2
*I *360:DIODE I *D sky130_fd_sc_hd__diode_2
*I *815:S I *D sky130_fd_sc_hd__mux2_1
*I *813:S I *D sky130_fd_sc_hd__mux2_1
*I *348:DIODE I *D sky130_fd_sc_hd__diode_2
*I *388:DIODE I *D sky130_fd_sc_hd__diode_2
*I *831:S I *D sky130_fd_sc_hd__mux2_1
*I *384:DIODE I *D sky130_fd_sc_hd__diode_2
*I *833:S I *D sky130_fd_sc_hd__mux2_1
*I *809:S I *D sky130_fd_sc_hd__mux2_1
*I *811:S I *D sky130_fd_sc_hd__mux2_1
*I *340:DIODE I *D sky130_fd_sc_hd__diode_2
*I *344:DIODE I *D sky130_fd_sc_hd__diode_2
*I *352:DIODE I *D sky130_fd_sc_hd__diode_2
*I *819:S I *D sky130_fd_sc_hd__mux2_1
*I *368:DIODE I *D sky130_fd_sc_hd__diode_2
*I *372:DIODE I *D sky130_fd_sc_hd__diode_2
*I *825:S I *D sky130_fd_sc_hd__mux2_1
*I *823:S I *D sky130_fd_sc_hd__mux2_1
*I *817:S I *D sky130_fd_sc_hd__mux2_1
*I *356:DIODE I *D sky130_fd_sc_hd__diode_2
*I *827:S I *D sky130_fd_sc_hd__mux2_1
*I *821:S I *D sky130_fd_sc_hd__mux2_1
*I *376:DIODE I *D sky130_fd_sc_hd__diode_2
*I *364:DIODE I *D sky130_fd_sc_hd__diode_2
*I *829:S I *D sky130_fd_sc_hd__mux2_1
*I *380:DIODE I *D sky130_fd_sc_hd__diode_2
*I *810:S I *D sky130_fd_sc_hd__mux2_1
*I *342:DIODE I *D sky130_fd_sc_hd__diode_2
*I *812:S I *D sky130_fd_sc_hd__mux2_1
*I *366:DIODE I *D sky130_fd_sc_hd__diode_2
*I *358:DIODE I *D sky130_fd_sc_hd__diode_2
*I *818:S I *D sky130_fd_sc_hd__mux2_1
*I *816:S I *D sky130_fd_sc_hd__mux2_1
*I *814:S I *D sky130_fd_sc_hd__mux2_1
*I *350:DIODE I *D sky130_fd_sc_hd__diode_2
*I *354:DIODE I *D sky130_fd_sc_hd__diode_2
*I *822:S I *D sky130_fd_sc_hd__mux2_1
*I *820:S I *D sky130_fd_sc_hd__mux2_1
*I *832:S I *D sky130_fd_sc_hd__mux2_1
*I *808:S I *D sky130_fd_sc_hd__mux2_1
*I *338:DIODE I *D sky130_fd_sc_hd__diode_2
*I *386:DIODE I *D sky130_fd_sc_hd__diode_2
*I *362:DIODE I *D sky130_fd_sc_hd__diode_2
*I *826:S I *D sky130_fd_sc_hd__mux2_1
*I *374:DIODE I *D sky130_fd_sc_hd__diode_2
*I *378:DIODE I *D sky130_fd_sc_hd__diode_2
*I *828:S I *D sky130_fd_sc_hd__mux2_1
*I *830:S I *D sky130_fd_sc_hd__mux2_1
*I *660:A I *D sky130_fd_sc_hd__nor2_2
*I *326:DIODE I *D sky130_fd_sc_hd__diode_2
*I *382:DIODE I *D sky130_fd_sc_hd__diode_2
*CAP
1 dco 0.00020678
2 *370:DIODE 0.000108644
3 *824:S 0.000126967
4 *346:DIODE 0
5 *360:DIODE 0
6 *815:S 0
7 *813:S 0.000219054
8 *348:DIODE 0
9 *388:DIODE 0
10 *831:S 1.57173e-05
11 *384:DIODE 0.000169194
12 *833:S 2.73454e-05
13 *809:S 0
14 *811:S 0.000282932
15 *340:DIODE 0
16 *344:DIODE 7.20301e-05
17 *352:DIODE 0
18 *819:S 0
19 *368:DIODE 0.000103461
20 *372:DIODE 0.000201662
21 *825:S 0
22 *823:S 4.97884e-05
23 *817:S 0
24 *356:DIODE 4.35359e-05
25 *827:S 4.49849e-05
26 *821:S 0
27 *376:DIODE 2.07347e-05
28 *364:DIODE 0
29 *829:S 5.99479e-05
30 *380:DIODE 0
31 *810:S 6.26815e-05
32 *342:DIODE 0
33 *812:S 0
34 *366:DIODE 0.000207637
35 *358:DIODE 0.000216552
36 *818:S 0
37 *816:S 9.09498e-05
38 *814:S 0.000118588
39 *350:DIODE 0
40 *354:DIODE 0
41 *822:S 0
42 *820:S 0
43 *832:S 0.000117353
44 *808:S 7.38588e-05
45 *338:DIODE 0
46 *386:DIODE 0
47 *362:DIODE 0
48 *826:S 0
49 *374:DIODE 5.2316e-05
50 *378:DIODE 0
51 *828:S 3.58865e-05
52 *830:S 0
53 *660:A 2.97371e-05
54 *326:DIODE 0
55 *382:DIODE 0.000147638
56 *5:490 0.000327463
57 *5:448 0.000638697
58 *5:436 0.000667069
59 *5:421 0.000821551
60 *5:398 0.000441485
61 *5:392 0.000210937
62 *5:382 0.000239645
63 *5:380 0.00128284
64 *5:376 0.000652922
65 *5:372 0.000416446
66 *5:365 0.000293592
67 *5:360 0.000360081
68 *5:356 0.00045443
69 *5:343 0.000278518
70 *5:325 0.000355405
71 *5:313 0.000235769
72 *5:312 0.000388325
73 *5:307 0.000455317
74 *5:291 0.000224485
75 *5:286 0.000488408
76 *5:275 0.000321026
77 *5:266 0.000307516
78 *5:252 2.07347e-05
79 *5:250 0.000374189
80 *5:235 0.000478793
81 *5:230 0.000339077
82 *5:215 0.000399993
83 *5:212 0.000333115
84 *5:206 0.000431239
85 *5:194 0.000707118
86 *5:159 0.000282482
87 *5:153 0.000261626
88 *5:147 0.000659324
89 *5:141 0.000569801
90 *5:135 0.000170146
91 *5:129 0.00036836
92 *5:126 0.000427558
93 *5:119 0.000232009
94 *5:103 0.000388419
95 *5:94 0.000282297
96 *5:88 0.000590812
97 *5:84 0.00059863
98 *5:82 0.000436409
99 *5:76 0.000485136
100 *5:73 0.00070714
101 *5:66 0.000316485
102 *5:57 0.000342036
103 *5:50 0.000214019
104 *5:41 0.000344409
105 *5:22 0.00036651
106 *5:10 0.000608198
107 *5:8 0.000138559
108 *5:7 0.00044772
109 *344:DIODE *222:18 0.00012568
110 *356:DIODE *817:A0 2.41961e-05
111 *358:DIODE *822:A0 0.000318901
112 *366:DIODE *901:TE 3.49494e-05
113 *366:DIODE *13:11 0.000265425
114 *366:DIODE *34:15 8.36429e-06
115 *366:DIODE *278:8 3.37671e-05
116 *370:DIODE *369:DIODE 1.00004e-05
117 *370:DIODE *824:A0 7.62627e-06
118 *370:DIODE *824:A1 1.66626e-05
119 *370:DIODE *271:6 7.60183e-05
120 *372:DIODE *371:DIODE 0.00052982
121 *374:DIODE *373:DIODE 3.28898e-06
122 *376:DIODE *160:41 0.000113968
123 *376:DIODE *243:19 8.42922e-05
124 *382:DIODE *336:DIODE 1.84293e-05
125 *382:DIODE *381:DIODE 7.40499e-05
126 *384:DIODE *831:A0 7.621e-05
127 *384:DIODE *249:21 6.43652e-05
128 *660:A *805:A 0.000106215
129 *660:A *284:23 5.56461e-05
130 *808:S *14:11 0.000179271
131 *808:S *284:23 1.78514e-05
132 *808:S *321:10 0.00015321
133 *810:S *759:B1 2.53145e-06
134 *810:S *810:A1 4.58003e-05
135 *810:S *160:55 2.23259e-05
136 *811:S *343:DIODE 0
137 *811:S *811:A0 0
138 *811:S *244:8 5.23262e-05
139 *813:S *813:A1 1.84293e-05
140 *813:S *864:A 0.000218628
141 *813:S *313:8 7.22498e-05
142 *814:S *814:A0 1.18084e-05
143 *814:S *814:A1 1.47102e-05
144 *814:S *15:5 0
145 *814:S *48:8 0
146 *816:S *816:A1 0.000159322
147 *816:S *35:8 1.61631e-05
148 *823:S *823:A1 3.41075e-05
149 *823:S *19:8 6.92705e-05
150 *824:S *824:A1 0.000211546
151 *827:S *375:DIODE 0.000208599
152 *827:S *827:A0 4.19058e-05
153 *827:S *922:A 6.46815e-05
154 *827:S *926:A 7.92757e-06
155 *829:S *779:B 4.70559e-05
156 *829:S *829:A0 6.36477e-05
157 *829:S *201:11 6.08467e-05
158 *831:S *249:21 7.62098e-06
159 *832:S *832:A1 1.43983e-05
160 *833:S *702:C 1.41196e-05
161 *833:S *711:C 2.01503e-05
162 *833:S *833:A0 1.69261e-05
163 *5:7 *11:10 0
164 *5:7 *12:8 0
165 *5:8 *381:DIODE 3.5534e-06
166 *5:8 *12:8 4.31485e-06
167 *5:10 *381:DIODE 0.000103312
168 *5:22 *805:A 0.000171288
169 *5:22 *944:A 0.000122378
170 *5:22 *284:23 0.000152239
171 *5:41 *377:DIODE 2.50491e-05
172 *5:41 *861:TE_B 0.000152842
173 *5:41 *12:8 5.14479e-05
174 *5:50 *377:DIODE 1.77537e-06
175 *5:50 *23:8 3.40703e-05
176 *5:57 *23:8 4.77318e-05
177 *5:66 *373:DIODE 5.53934e-05
178 *5:73 *373:DIODE 1.50513e-05
179 *5:73 *887:TE 0
180 *5:73 *30:8 4.31485e-06
181 *5:73 *264:8 0
182 *5:76 *887:A 0.000105652
183 *5:76 *889:TE_B 0.000383703
184 *5:76 *891:A 6.50586e-05
185 *5:76 *37:16 7.23987e-05
186 *5:76 *263:8 0.000118166
187 *5:82 *37:16 1.00846e-05
188 *5:88 *884:A 2.41274e-06
189 *5:88 *888:A 0
190 *5:88 *889:A 0
191 *5:88 *910:TE_B 3.31733e-05
192 *5:88 *911:A 0
193 *5:88 *261:6 0
194 *5:88 *266:6 0
195 *5:103 *14:11 5.56367e-05
196 *5:103 *321:10 3.28416e-06
197 *5:119 *888:A 0
198 *5:119 *910:TE_B 0.000127194
199 *5:126 *37:16 0
200 *5:129 *822:A1 2.40615e-05
201 *5:135 *822:A0 0.000117376
202 *5:135 *822:A1 0.000117376
203 *5:135 *34:15 1.5962e-05
204 *5:141 *818:A1 0.000146858
205 *5:141 *822:A0 0.000239947
206 *5:141 *906:A 0.000112367
207 *5:141 *34:15 0.000508726
208 *5:147 *901:A 2.20837e-05
209 *5:147 *902:A 2.99929e-05
210 *5:147 *902:TE 0
211 *5:147 *902:Z 4.31539e-05
212 *5:147 *35:8 2.01874e-05
213 *5:147 *275:8 8.53106e-06
214 *5:153 *35:8 4.13614e-05
215 *5:159 *35:8 1.80647e-05
216 *5:194 *761:A2 6.50586e-05
217 *5:194 *761:A3 0.000154145
218 *5:194 *761:B1 0.000158371
219 *5:194 *908:Z 0.000158357
220 *5:194 *911:A 0.000220183
221 *5:194 *913:A 0.000478298
222 *5:194 *37:16 0.00025113
223 *5:194 *225:126 0.000113968
224 *5:206 *345:DIODE 0.000177907
225 *5:206 *761:B1 1.92172e-05
226 *5:206 *913:A 0.000162583
227 *5:206 *37:16 5.51483e-06
228 *5:206 *312:15 0.000154145
229 *5:212 *312:15 0.000205985
230 *5:215 *779:B 0
231 *5:215 *16:9 0
232 *5:215 *17:9 0
233 *5:215 *44:14 5.39635e-06
234 *5:230 *779:B 0
235 *5:230 *810:A0 0
236 *5:230 *44:14 4.54245e-05
237 *5:230 *201:57 1.94839e-05
238 *5:230 *225:159 8.62625e-06
239 *5:235 *201:11 0.000213676
240 *5:235 *222:73 4.56667e-05
241 *5:250 *817:A0 4.70005e-05
242 *5:250 *829:A1 4.55535e-05
243 *5:250 *201:11 0.000197281
244 *5:266 *779:A 0.000377273
245 *5:266 *817:A0 8.30273e-05
246 *5:266 *829:A1 2.97007e-05
247 *5:266 *17:9 5.96936e-05
248 *5:266 *312:15 0.000377273
249 *5:275 *773:A1 6.08467e-05
250 *5:275 *779:A 0.000354638
251 *5:275 *823:A0 0.000152994
252 *5:275 *827:A0 0.00011231
253 *5:275 *118:109 1.5714e-05
254 *5:275 *312:15 0.00041745
255 *5:286 *823:A0 0.00012183
256 *5:286 *827:A0 4.53418e-05
257 *5:286 *926:A 4.29164e-05
258 *5:291 *817:A0 0.00016386
259 *5:291 *817:A1 0.00018593
260 *5:291 *293:11 0.000349627
261 *5:307 *817:A1 7.30049e-05
262 *5:307 *819:A0 1.4106e-05
263 *5:307 *819:A1 6.46815e-05
264 *5:307 *293:11 3.96696e-05
265 *5:312 *823:A0 0
266 *5:312 *825:A0 0
267 *5:325 *371:DIODE 2.6758e-05
268 *5:325 *19:8 0.000600345
269 *5:343 *819:A1 4.95892e-05
270 *5:356 *777:B 4.01361e-06
271 *5:356 *819:A0 3.76373e-05
272 *5:356 *819:A1 9.91783e-05
273 *5:356 *930:Z 6.34391e-05
274 *5:356 *307:6 8.56142e-05
275 *5:360 *773:A3 0
276 *5:360 *773:B1 0.000231977
277 *5:360 *773:C1 2.55493e-05
278 *5:360 *777:B 1.29348e-05
279 *5:360 *222:106 0
280 *5:360 *307:6 3.38302e-05
281 *5:360 *312:15 2.4764e-05
282 *5:365 *815:A0 0.000311249
283 *5:365 *21:12 1.80122e-05
284 *5:372 *351:DIODE 0.000127179
285 *5:372 *772:C 0
286 *5:372 *864:A 0
287 *5:376 *772:A 0
288 *5:376 *864:A 0
289 *5:380 *772:A 0
290 *5:380 *772:C 1.43983e-05
291 *5:380 *866:TE 0
292 *5:380 *222:18 0.000294894
293 *5:380 *222:34 0.000205332
294 *5:380 *245:6 0
295 *5:380 *252:6 5.12093e-05
296 *5:380 *252:8 7.35731e-05
297 *5:382 *872:A 6.94925e-05
298 *5:382 *222:18 0.000221202
299 *5:382 *252:8 1.69932e-05
300 *5:392 *809:A0 4.33819e-05
301 *5:392 *872:A 6.92705e-05
302 *5:392 *122:8 5.04829e-06
303 *5:398 *809:A0 3.89073e-05
304 *5:398 *872:A 0.00017407
305 *5:398 *225:23 0.000265292
306 *5:421 *833:A1 8.57057e-05
307 *5:421 *873:A 0.000111708