*SPEF "ieee 1481-1999"
*DESIGN "digital_pll"
*DATE "11:11:11 Fri 11 11, 1111"
*VENDOR "OpenRCX"
*PROGRAM "Parallel Extraction"
*VERSION "1.0"
*DESIGN_FLOW "NAME_SCOPE LOCAL" "PIN_CAP NONE"
*DIVIDER /
*DELIMITER :
*BUS_DELIMITER []
*T_UNIT 1 NS
*C_UNIT 1 PF
*R_UNIT 1 OHM
*L_UNIT 1 HENRY

*NAME_MAP
*3 clockp[0]
*4 clockp[1]
*5 dco
*6 div[0]
*7 div[1]
*8 div[2]
*9 div[3]
*10 div[4]
*11 enable
*12 ext_trim[0]
*13 ext_trim[10]
*14 ext_trim[11]
*15 ext_trim[12]
*16 ext_trim[13]
*17 ext_trim[14]
*18 ext_trim[15]
*19 ext_trim[16]
*20 ext_trim[17]
*21 ext_trim[18]
*22 ext_trim[19]
*23 ext_trim[1]
*24 ext_trim[20]
*25 ext_trim[21]
*26 ext_trim[22]
*27 ext_trim[23]
*28 ext_trim[24]
*29 ext_trim[25]
*30 ext_trim[2]
*31 ext_trim[3]
*32 ext_trim[4]
*33 ext_trim[5]
*34 ext_trim[6]
*35 ext_trim[7]
*36 ext_trim[8]
*37 ext_trim[9]
*38 osc
*39 resetb
*40 _000_
*41 _001_
*42 _002_
*43 _003_
*44 _004_
*45 _005_
*46 _006_
*47 _007_
*48 _008_
*49 _009_
*50 _010_
*51 _011_
*52 _012_
*53 _013_
*54 _014_
*55 _015_
*56 _016_
*57 _017_
*58 _018_
*59 _019_
*60 _020_
*61 _021_
*62 _022_
*63 _023_
*64 _024_
*65 _025_
*66 _026_
*67 _027_
*68 _028_
*69 _029_
*70 _030_
*71 _031_
*72 _032_
*73 _033_
*74 _034_
*75 _035_
*76 _036_
*77 _037_
*78 _038_
*79 _039_
*80 _040_
*81 _041_
*82 _042_
*83 _043_
*84 _044_
*85 _045_
*86 _046_
*87 _047_
*88 _048_
*89 _049_
*90 _050_
*91 _051_
*92 _052_
*93 _053_
*94 _054_
*95 _055_
*96 _056_
*97 _057_
*98 _058_
*99 _059_
*100 _060_
*101 _061_
*102 _062_
*103 _063_
*104 _064_
*105 _065_
*106 _066_
*107 _067_
*108 _068_
*109 _069_
*110 _070_
*111 _071_
*112 _072_
*113 _073_
*114 _074_
*115 _075_
*116 _076_
*117 _077_
*118 _078_
*119 _079_
*120 _080_
*121 _081_
*122 _082_
*123 _083_
*124 _084_
*125 _085_
*126 _086_
*127 _087_
*128 _088_
*129 _089_
*130 _090_
*131 _091_
*132 _092_
*133 _093_
*134 _094_
*135 _095_
*136 _096_
*137 _097_
*138 _098_
*139 _099_
*140 _100_
*141 _101_
*142 _102_
*143 _103_
*144 _104_
*145 _105_
*146 _106_
*147 _107_
*148 _108_
*149 _109_
*150 _110_
*151 _111_
*152 _112_
*153 _113_
*154 _114_
*155 _115_
*156 _116_
*157 _117_
*158 _118_
*159 _119_
*160 _120_
*161 _121_
*162 _122_
*163 _123_
*164 _124_
*165 _125_
*166 _126_
*167 _127_
*168 _128_
*169 _129_
*170 _130_
*171 _131_
*172 _132_
*173 _133_
*174 _134_
*175 _135_
*176 _136_
*177 _137_
*178 _138_
*179 _139_
*180 _140_
*181 _141_
*182 _142_
*183 _143_
*184 _144_
*185 _145_
*186 _146_
*187 _147_
*188 _148_
*189 _149_
*190 _150_
*191 _151_
*192 _152_
*193 _153_
*194 _154_
*195 _155_
*196 _156_
*197 _157_
*198 _158_
*199 _159_
*200 _160_
*201 _161_
*202 _162_
*203 _163_
*204 pll_control\.clock
*205 pll_control\.count0\[0\]
*206 pll_control\.count0\[1\]
*207 pll_control\.count0\[2\]
*208 pll_control\.count0\[3\]
*209 pll_control\.count0\[4\]
*210 pll_control\.count1\[0\]
*211 pll_control\.count1\[1\]
*212 pll_control\.count1\[2\]
*213 pll_control\.count1\[3\]
*214 pll_control\.count1\[4\]
*215 pll_control\.oscbuf\[0\]
*216 pll_control\.oscbuf\[1\]
*217 pll_control\.oscbuf\[2\]
*218 pll_control\.prep\[0\]
*219 pll_control\.prep\[1\]
*220 pll_control\.prep\[2\]
*221 pll_control\.tint\[0\]
*222 pll_control\.tint\[1\]
*223 pll_control\.tint\[2\]
*224 pll_control\.tint\[3\]
*225 pll_control\.tint\[4\]
*226 pll_control\.tval\[0\]
*227 pll_control\.tval\[1\]
*228 ringosc\.c\[0\]
*229 ringosc\.c\[1\]
*230 ringosc\.dstage\[0\]\.id\.d0
*231 ringosc\.dstage\[0\]\.id\.d1
*232 ringosc\.dstage\[0\]\.id\.d2
*233 ringosc\.dstage\[0\]\.id\.in
*234 ringosc\.dstage\[0\]\.id\.out
*235 ringosc\.dstage\[0\]\.id\.trim\[0\]
*236 ringosc\.dstage\[0\]\.id\.trim\[1\]
*237 ringosc\.dstage\[0\]\.id\.ts
*238 ringosc\.dstage\[10\]\.id\.d0
*239 ringosc\.dstage\[10\]\.id\.d1
*240 ringosc\.dstage\[10\]\.id\.d2
*241 ringosc\.dstage\[10\]\.id\.in
*242 ringosc\.dstage\[10\]\.id\.out
*243 ringosc\.dstage\[10\]\.id\.trim\[0\]
*244 ringosc\.dstage\[10\]\.id\.trim\[1\]
*245 ringosc\.dstage\[10\]\.id\.ts
*246 ringosc\.dstage\[11\]\.id\.d0
*247 ringosc\.dstage\[11\]\.id\.d1
*248 ringosc\.dstage\[11\]\.id\.d2
*249 ringosc\.dstage\[11\]\.id\.out
*250 ringosc\.dstage\[11\]\.id\.trim\[0\]
*251 ringosc\.dstage\[11\]\.id\.trim\[1\]
*252 ringosc\.dstage\[11\]\.id\.ts
*253 ringosc\.dstage\[1\]\.id\.d0
*254 ringosc\.dstage\[1\]\.id\.d1
*255 ringosc\.dstage\[1\]\.id\.d2
*256 ringosc\.dstage\[1\]\.id\.out
*257 ringosc\.dstage\[1\]\.id\.trim\[0\]
*258 ringosc\.dstage\[1\]\.id\.trim\[1\]
*259 ringosc\.dstage\[1\]\.id\.ts
*260 ringosc\.dstage\[2\]\.id\.d0
*261 ringosc\.dstage\[2\]\.id\.d1
*262 ringosc\.dstage\[2\]\.id\.d2
*263 ringosc\.dstage\[2\]\.id\.out
*264 ringosc\.dstage\[2\]\.id\.trim\[0\]
*265 ringosc\.dstage\[2\]\.id\.trim\[1\]
*266 ringosc\.dstage\[2\]\.id\.ts
*267 ringosc\.dstage\[3\]\.id\.d0
*268 ringosc\.dstage\[3\]\.id\.d1
*269 ringosc\.dstage\[3\]\.id\.d2
*270 ringosc\.dstage\[3\]\.id\.out
*271 ringosc\.dstage\[3\]\.id\.trim\[0\]
*272 ringosc\.dstage\[3\]\.id\.trim\[1\]
*273 ringosc\.dstage\[3\]\.id\.ts
*274 ringosc\.dstage\[4\]\.id\.d0
*275 ringosc\.dstage\[4\]\.id\.d1
*276 ringosc\.dstage\[4\]\.id\.d2
*277 ringosc\.dstage\[4\]\.id\.out
*278 ringosc\.dstage\[4\]\.id\.trim\[0\]
*279 ringosc\.dstage\[4\]\.id\.trim\[1\]
*280 ringosc\.dstage\[4\]\.id\.ts
*281 ringosc\.dstage\[5\]\.id\.d0
*282 ringosc\.dstage\[5\]\.id\.d1
*283 ringosc\.dstage\[5\]\.id\.d2
*284 ringosc\.dstage\[5\]\.id\.out
*285 ringosc\.dstage\[5\]\.id\.trim\[0\]
*286 ringosc\.dstage\[5\]\.id\.trim\[1\]
*287 ringosc\.dstage\[5\]\.id\.ts
*288 ringosc\.dstage\[6\]\.id\.d0
*289 ringosc\.dstage\[6\]\.id\.d1
*290 ringosc\.dstage\[6\]\.id\.d2
*291 ringosc\.dstage\[6\]\.id\.out
*292 ringosc\.dstage\[6\]\.id\.trim\[0\]
*293 ringosc\.dstage\[6\]\.id\.trim\[1\]
*294 ringosc\.dstage\[6\]\.id\.ts
*295 ringosc\.dstage\[7\]\.id\.d0
*296 ringosc\.dstage\[7\]\.id\.d1
*297 ringosc\.dstage\[7\]\.id\.d2
*298 ringosc\.dstage\[7\]\.id\.out
*299 ringosc\.dstage\[7\]\.id\.trim\[0\]
*300 ringosc\.dstage\[7\]\.id\.trim\[1\]
*301 ringosc\.dstage\[7\]\.id\.ts
*302 ringosc\.dstage\[8\]\.id\.d0
*303 ringosc\.dstage\[8\]\.id\.d1
*304 ringosc\.dstage\[8\]\.id\.d2
*305 ringosc\.dstage\[8\]\.id\.out
*306 ringosc\.dstage\[8\]\.id\.trim\[0\]
*307 ringosc\.dstage\[8\]\.id\.trim\[1\]
*308 ringosc\.dstage\[8\]\.id\.ts
*309 ringosc\.dstage\[9\]\.id\.d0
*310 ringosc\.dstage\[9\]\.id\.d1
*311 ringosc\.dstage\[9\]\.id\.d2
*312 ringosc\.dstage\[9\]\.id\.trim\[0\]
*313 ringosc\.dstage\[9\]\.id\.trim\[1\]
*314 ringosc\.dstage\[9\]\.id\.ts
*315 ringosc\.iss\.ctrl0
*316 ringosc\.iss\.d0
*317 ringosc\.iss\.d1
*318 ringosc\.iss\.d2
*319 ringosc\.iss\.one
*320 ringosc\.iss\.reset
*321 ringosc\.iss\.trim\[0\]
*322 ringosc\.iss\.trim\[1\]
*323 FILLER_0_105
*324 FILLER_0_113
*325 FILLER_0_19
*326 FILLER_0_3
*327 FILLER_0_37
*328 FILLER_0_52
*329 FILLER_0_62
*330 FILLER_0_66
*331 FILLER_0_70
*332 FILLER_0_8
*333 FILLER_0_82
*334 FILLER_0_93
*335 FILLER_10_104
*336 FILLER_10_113
*337 FILLER_10_15
*338 FILLER_10_19
*339 FILLER_10_25
*340 FILLER_10_3
*341 FILLER_10_34
*342 FILLER_10_94
*343 FILLER_11_101
*344 FILLER_11_111
*345 FILLER_11_116
*346 FILLER_11_130
*347 FILLER_11_134
*348 FILLER_11_23
*349 FILLER_11_32
*350 FILLER_11_38
*351 FILLER_11_50
*352 FILLER_11_57
*353 FILLER_11_77
*354 FILLER_12_105
*355 FILLER_12_134
*356 FILLER_12_19
*357 FILLER_12_27
*358 FILLER_12_39
*359 FILLER_12_48
*360 FILLER_12_68
*361 FILLER_12_80
*362 FILLER_12_99
*363 FILLER_13_134
*364 FILLER_13_3
*365 FILLER_13_34
*366 FILLER_13_54
*367 FILLER_13_60
*368 FILLER_13_86
*369 FILLER_14_112
*370 FILLER_14_13
*371 FILLER_14_3
*372 FILLER_14_43
*373 FILLER_14_63
*374 FILLER_14_79
*375 FILLER_14_83
*376 FILLER_14_85
*377 FILLER_15_109
*378 FILLER_15_134
*379 FILLER_15_24
*380 FILLER_15_3
*381 FILLER_15_39
*382 FILLER_15_49
*383 FILLER_15_55
*384 FILLER_15_67
*385 FILLER_15_76
*386 FILLER_15_93
*387 FILLER_16_115
*388 FILLER_16_121
*389 FILLER_16_135
*390 FILLER_16_15
*391 FILLER_16_23
*392 FILLER_16_27
*393 FILLER_16_3
*394 FILLER_16_32
*395 FILLER_16_59
*396 FILLER_16_72
*397 FILLER_16_94
*398 FILLER_16_98
*399 FILLER_17_100
*400 FILLER_17_110
*401 FILLER_17_12
*402 FILLER_17_30
*403 FILLER_17_84
*404 FILLER_18_112
*405 FILLER_18_134
*406 FILLER_18_26
*407 FILLER_18_29
*408 FILLER_18_3
*409 FILLER_18_49
*410 FILLER_18_67
*411 FILLER_18_75
*412 FILLER_18_94
*413 FILLER_19_100
*414 FILLER_19_110
*415 FILLER_19_118
*416 FILLER_19_135
*417 FILLER_19_26
*418 FILLER_19_55
*419 FILLER_19_68
*420 FILLER_19_87
*421 FILLER_1_111
*422 FILLER_1_134
*423 FILLER_1_3
*424 FILLER_1_54
*425 FILLER_1_78
*426 FILLER_20_110
*427 FILLER_20_134
*428 FILLER_20_26
*429 FILLER_20_3
*430 FILLER_20_38
*431 FILLER_20_45
*432 FILLER_20_85
*433 FILLER_20_99
*434 FILLER_21_104
*435 FILLER_21_135
*436 FILLER_21_21
*437 FILLER_21_55
*438 FILLER_21_69
*439 FILLER_22_108
*440 FILLER_22_129
*441 FILLER_22_135
*442 FILLER_22_29
*443 FILLER_22_3
*444 FILLER_22_42
*445 FILLER_22_54
*446 FILLER_22_57
*447 FILLER_22_7
*448 FILLER_22_72
*449 FILLER_2_120
*450 FILLER_2_134
*451 FILLER_2_18
*452 FILLER_2_3
*453 FILLER_2_78
*454 FILLER_3_111
*455 FILLER_3_113
*456 FILLER_3_24
*457 FILLER_3_3
*458 FILLER_3_33
*459 FILLER_3_37
*460 FILLER_3_48
*461 FILLER_3_57
*462 FILLER_3_71
*463 FILLER_3_94
*464 FILLER_4_120
*465 FILLER_4_129
*466 FILLER_4_135
*467 FILLER_4_3
*468 FILLER_4_58
*469 FILLER_4_81
*470 FILLER_5_103
*471 FILLER_5_134
*472 FILLER_5_19
*473 FILLER_5_3
*474 FILLER_5_32
*475 FILLER_5_57
*476 FILLER_5_69
*477 FILLER_6_100
*478 FILLER_6_122
*479 FILLER_6_134
*480 FILLER_6_17
*481 FILLER_6_27
*482 FILLER_6_3
*483 FILLER_6_38
*484 FILLER_6_53
*485 FILLER_6_62
*486 FILLER_6_71
*487 FILLER_6_83
*488 FILLER_6_88
*489 FILLER_7_103
*490 FILLER_7_116
*491 FILLER_7_127
*492 FILLER_7_135
*493 FILLER_7_39
*494 FILLER_7_81
*495 FILLER_7_90
*496 FILLER_7_96
*497 FILLER_8_27
*498 FILLER_8_29
*499 FILLER_8_3
*500 FILLER_8_51
*501 FILLER_8_63
*502 FILLER_8_69
*503 FILLER_9_113
*504 FILLER_9_27
*505 FILLER_9_3
*506 FILLER_9_47
*507 FILLER_9_52
*508 FILLER_9_78
*509 FILLER_9_87
*510 PHY_0
*511 PHY_1
*512 PHY_10
*513 PHY_11
*514 PHY_12
*515 PHY_13
*516 PHY_14
*517 PHY_15
*518 PHY_16
*519 PHY_17
*520 PHY_18
*521 PHY_19
*522 PHY_2
*523 PHY_20
*524 PHY_21
*525 PHY_22
*526 PHY_23
*527 PHY_24
*528 PHY_25
*529 PHY_26
*530 PHY_27
*531 PHY_28
*532 PHY_29
*533 PHY_3
*534 PHY_30
*535 PHY_31
*536 PHY_32
*537 PHY_33
*538 PHY_34
*539 PHY_35
*540 PHY_36
*541 PHY_37
*542 PHY_38
*543 PHY_39
*544 PHY_4
*545 PHY_40
*546 PHY_41
*547 PHY_42
*548 PHY_43
*549 PHY_44
*550 PHY_45
*551 PHY_5
*552 PHY_6
*553 PHY_7
*554 PHY_8
*555 PHY_9
*556 TAP_46
*557 TAP_47
*558 TAP_48
*559 TAP_49
*560 TAP_50
*561 TAP_51
*562 TAP_52
*563 TAP_53
*564 TAP_54
*565 TAP_55
*566 TAP_56
*567 TAP_57
*568 TAP_58
*569 TAP_59
*570 TAP_60
*571 TAP_61
*572 TAP_62
*573 TAP_63
*574 TAP_64
*575 TAP_65
*576 TAP_66
*577 TAP_67
*578 TAP_68
*579 TAP_69
*580 TAP_70
*581 TAP_71
*582 TAP_72
*583 TAP_73
*584 TAP_74
*585 TAP_75
*586 TAP_76
*587 TAP_77
*588 TAP_78
*589 TAP_79
*590 TAP_80
*591 TAP_81
*592 TAP_82
*593 TAP_83
*594 TAP_84
*595 TAP_85
*596 TAP_86
*597 TAP_87
*598 TAP_88
*599 TAP_89
*600 TAP_90
*601 TAP_91
*602 TAP_92
*603 TAP_93
*604 TAP_94
*605 TAP_95
*606 _164_
*607 _165_
*608 _166_
*609 _167_
*610 _168_
*611 _169_
*612 _170_
*613 _171_
*614 _172_
*615 _173_
*616 _174_
*617 _175_
*618 _176_
*619 _177_
*620 _178_
*621 _179_
*622 _180_
*623 _181_
*624 _182_
*625 _183_
*626 _184_
*627 _185_
*628 _186_
*629 _187_
*630 _188_
*631 _189_
*632 _190_
*633 _191_
*634 _192_
*635 _193_
*636 _194_
*637 _195_
*638 _196_
*639 _197_
*640 _198_
*641 _199_
*642 _200_
*643 _201_
*644 _202_
*645 _203_
*646 _204_
*647 _205_
*648 _206_
*649 _207_
*650 _208_
*651 _209_
*652 _210_
*653 _211_
*654 _212_
*655 _213_
*656 _214_
*657 _215_
*658 _216_
*659 _217_
*660 _218_
*661 _219_
*662 _220_
*663 _221_
*664 _222_
*665 _223_
*666 _224_
*667 _225_
*668 _226_
*669 _227_
*670 _228_
*671 _229_
*672 _230_
*673 _231_
*674 _232_
*675 _233_
*676 _234_
*677 _235_
*678 _236_
*679 _237_
*680 _238_
*681 _239_
*682 _240_
*683 _241_
*684 _242_
*685 _243_
*686 _244_
*687 _245_
*688 _246_
*689 _247_
*690 _248_
*691 _249_
*692 _250_
*693 _251_
*694 _252_
*695 _253_
*696 _254_
*697 _255_
*698 _256_
*699 _257_
*700 _258_
*701 _259_
*702 _260_
*703 _261_
*704 _262_
*705 _263_
*706 _264_
*707 _265_
*708 _266_
*709 _267_
*710 _268_
*711 _269_
*712 _270_
*713 _271_
*714 _272_
*715 _273_
*716 _274_
*717 _275_
*718 _276_
*719 _277_
*720 _278_
*721 _279_
*722 _280_
*723 _281_
*724 _282_
*725 _283_
*726 _284_
*727 _285_
*728 _286_
*729 _287_
*730 _288_
*731 _289_
*732 _290_
*733 _291_
*734 _292_
*735 _293_
*736 _294_
*737 _295_
*738 _296_
*739 _297_
*740 _298_
*741 _299_
*742 _300_
*743 _301_
*744 _302_
*745 _303_
*746 _304_
*747 _305_
*748 _306_
*749 _307_
*750 _308_
*751 _309_
*752 _310_
*753 _311_
*754 _312_
*755 _313_
*756 _314_
*757 _315_
*758 _316_
*759 _317_
*760 _318_
*761 _319_
*762 _320_
*763 _321_
*764 _322_
*765 _323_
*766 _324_
*767 _325_
*768 _326_
*769 _327_
*770 _328_
*771 _329_
*772 _330_
*773 _331_
*774 _332_
*775 _333_
*776 _334_
*777 _335_
*778 _336_
*779 _337_
*780 _338_
*781 _339_
*782 _340_
*783 _341_
*784 _342_
*785 _343_
*786 _344_
*787 _345_
*788 _346_
*789 _347_
*790 _348_
*791 _349_
*792 _350_
*793 _351_
*794 _352_
*795 _353_
*796 _354_
*797 _355_
*798 _356_
*799 _357_
*800 _358_
*801 _359_
*802 _360_
*803 _361_
*804 _362_
*805 _363_
*806 _364_
*807 _365_
*808 _366_
*809 _367_
*810 _368_
*811 _369_
*812 _370_
*813 _371_
*814 _372_
*815 _373_
*816 _374_
*817 _375_
*818 _376_
*819 _377_
*820 _378_
*821 ringosc\.dstage\[0\]\.id\.delaybuf0
*822 ringosc\.dstage\[0\]\.id\.delaybuf1
*823 ringosc\.dstage\[0\]\.id\.delayen0
*824 ringosc\.dstage\[0\]\.id\.delayen1
*825 ringosc\.dstage\[0\]\.id\.delayenb0
*826 ringosc\.dstage\[0\]\.id\.delayenb1
*827 ringosc\.dstage\[0\]\.id\.delayint0
*828 ringosc\.dstage\[10\]\.id\.delaybuf0
*829 ringosc\.dstage\[10\]\.id\.delaybuf1
*830 ringosc\.dstage\[10\]\.id\.delayen0
*831 ringosc\.dstage\[10\]\.id\.delayen1
*832 ringosc\.dstage\[10\]\.id\.delayenb0
*833 ringosc\.dstage\[10\]\.id\.delayenb1
*834 ringosc\.dstage\[10\]\.id\.delayint0
*835 ringosc\.dstage\[11\]\.id\.delaybuf0
*836 ringosc\.dstage\[11\]\.id\.delaybuf1
*837 ringosc\.dstage\[11\]\.id\.delayen0
*838 ringosc\.dstage\[11\]\.id\.delayen1
*839 ringosc\.dstage\[11\]\.id\.delayenb0
*840 ringosc\.dstage\[11\]\.id\.delayenb1
*841 ringosc\.dstage\[11\]\.id\.delayint0
*842 ringosc\.dstage\[1\]\.id\.delaybuf0
*843 ringosc\.dstage\[1\]\.id\.delaybuf1
*844 ringosc\.dstage\[1\]\.id\.delayen0
*845 ringosc\.dstage\[1\]\.id\.delayen1
*846 ringosc\.dstage\[1\]\.id\.delayenb0
*847 ringosc\.dstage\[1\]\.id\.delayenb1
*848 ringosc\.dstage\[1\]\.id\.delayint0
*849 ringosc\.dstage\[2\]\.id\.delaybuf0
*850 ringosc\.dstage\[2\]\.id\.delaybuf1
*851 ringosc\.dstage\[2\]\.id\.delayen0
*852 ringosc\.dstage\[2\]\.id\.delayen1
*853 ringosc\.dstage\[2\]\.id\.delayenb0
*854 ringosc\.dstage\[2\]\.id\.delayenb1
*855 ringosc\.dstage\[2\]\.id\.delayint0
*856 ringosc\.dstage\[3\]\.id\.delaybuf0
*857 ringosc\.dstage\[3\]\.id\.delaybuf1
*858 ringosc\.dstage\[3\]\.id\.delayen0
*859 ringosc\.dstage\[3\]\.id\.delayen1
*860 ringosc\.dstage\[3\]\.id\.delayenb0
*861 ringosc\.dstage\[3\]\.id\.delayenb1
*862 ringosc\.dstage\[3\]\.id\.delayint0
*863 ringosc\.dstage\[4\]\.id\.delaybuf0
*864 ringosc\.dstage\[4\]\.id\.delaybuf1
*865 ringosc\.dstage\[4\]\.id\.delayen0
*866 ringosc\.dstage\[4\]\.id\.delayen1
*867 ringosc\.dstage\[4\]\.id\.delayenb0
*868 ringosc\.dstage\[4\]\.id\.delayenb1
*869 ringosc\.dstage\[4\]\.id\.delayint0
*870 ringosc\.dstage\[5\]\.id\.delaybuf0
*871 ringosc\.dstage\[5\]\.id\.delaybuf1
*872 ringosc\.dstage\[5\]\.id\.delayen0
*873 ringosc\.dstage\[5\]\.id\.delayen1
*874 ringosc\.dstage\[5\]\.id\.delayenb0
*875 ringosc\.dstage\[5\]\.id\.delayenb1
*876 ringosc\.dstage\[5\]\.id\.delayint0
*877 ringosc\.dstage\[6\]\.id\.delaybuf0
*878 ringosc\.dstage\[6\]\.id\.delaybuf1
*879 ringosc\.dstage\[6\]\.id\.delayen0
*880 ringosc\.dstage\[6\]\.id\.delayen1
*881 ringosc\.dstage\[6\]\.id\.delayenb0
*882 ringosc\.dstage\[6\]\.id\.delayenb1
*883 ringosc\.dstage\[6\]\.id\.delayint0
*884 ringosc\.dstage\[7\]\.id\.delaybuf0
*885 ringosc\.dstage\[7\]\.id\.delaybuf1
*886 ringosc\.dstage\[7\]\.id\.delayen0
*887 ringosc\.dstage\[7\]\.id\.delayen1
*888 ringosc\.dstage\[7\]\.id\.delayenb0
*889 ringosc\.dstage\[7\]\.id\.delayenb1
*890 ringosc\.dstage\[7\]\.id\.delayint0
*891 ringosc\.dstage\[8\]\.id\.delaybuf0
*892 ringosc\.dstage\[8\]\.id\.delaybuf1
*893 ringosc\.dstage\[8\]\.id\.delayen0
*894 ringosc\.dstage\[8\]\.id\.delayen1
*895 ringosc\.dstage\[8\]\.id\.delayenb0
*896 ringosc\.dstage\[8\]\.id\.delayenb1
*897 ringosc\.dstage\[8\]\.id\.delayint0
*898 ringosc\.dstage\[9\]\.id\.delaybuf0
*899 ringosc\.dstage\[9\]\.id\.delaybuf1
*900 ringosc\.dstage\[9\]\.id\.delayen0
*901 ringosc\.dstage\[9\]\.id\.delayen1
*902 ringosc\.dstage\[9\]\.id\.delayenb0
*903 ringosc\.dstage\[9\]\.id\.delayenb1
*904 ringosc\.dstage\[9\]\.id\.delayint0
*905 ringosc\.ibufp00
*906 ringosc\.ibufp01
*907 ringosc\.ibufp10
*908 ringosc\.ibufp11
*909 ringosc\.iss\.const1
*910 ringosc\.iss\.ctrlen0
*911 ringosc\.iss\.delaybuf0
*912 ringosc\.iss\.delayen0
*913 ringosc\.iss\.delayen1
*914 ringosc\.iss\.delayenb0
*915 ringosc\.iss\.delayenb1
*916 ringosc\.iss\.delayint0
*917 ringosc\.iss\.reseten0

*PORTS
clockp[0] O
clockp[1] O
dco I
div[0] I
div[1] I
div[2] I
div[3] I
div[4] I
enable I
ext_trim[0] I
ext_trim[10] I
ext_trim[11] I
ext_trim[12] I
ext_trim[13] I
ext_trim[14] I
ext_trim[15] I
ext_trim[16] I
ext_trim[17] I
ext_trim[18] I
ext_trim[19] I
ext_trim[1] I
ext_trim[20] I
ext_trim[21] I
ext_trim[22] I
ext_trim[23] I
ext_trim[24] I
ext_trim[25] I
ext_trim[2] I
ext_trim[3] I
ext_trim[4] I
ext_trim[5] I
ext_trim[6] I
ext_trim[7] I
ext_trim[8] I
ext_trim[9] I
osc I
resetb I

*D_NET *3 0.000789648
*CONN
*P clockp[0] O
*I *770:X O *D sky130_fd_sc_hd__buf_2
*CAP
1 clockp[0] 0.000394824
2 *770:X 0.000394824
3 clockp[0] clockp[1] 0
*RES
1 *770:X clockp[0] 22.4772 
*END

*D_NET *4 0.00660028
*CONN
*P clockp[1] O
*I *908:Y O *D sky130_fd_sc_hd__clkinv_8
*CAP
1 clockp[1] 0.000894949
2 *908:Y 0.00106442
3 *4:10 0.00195936
4 clockp[1] *619:A 2.57389e-05
5 clockp[1] *747:A 0.000429034
6 clockp[1] *818:D 0.000127179
7 clockp[1] *6:11 0
8 clockp[1] *39:8 0
9 clockp[1] *137:10 1.90218e-05
10 *4:10 *607:A 5.57222e-05
11 *4:10 *619:A 0.000101637
12 *4:10 *623:A 0
13 *4:10 *624:A 0.000436811
14 *4:10 *625:A2 0
15 *4:10 *625:B1 0.00022567
16 *4:10 *643:B2 5.99159e-05
17 *4:10 *654:B1 2.02035e-05
18 *4:10 *656:B 0
19 *4:10 *657:A2 0
20 *4:10 *769:A 0.000326398
21 *4:10 *820:D 0.000405838
22 *4:10 *39:8 0
23 *4:10 *112:8 0.000161359
24 *4:10 *112:10 0.000160073
25 *4:10 *113:8 6.67964e-05
26 *4:10 *138:6 6.01517e-05
27 *4:10 *140:8 0
28 *4:10 *320:6 0
29 clockp[0] clockp[1] 0
*RES
1 *908:Y *4:10 46.6286 
2 *4:10 clockp[1] 14.7092 
*END

*D_NET *5 0.0371169
*CONN
*P dco I
*I *788:S I *D sky130_fd_sc_hd__mux2_1
*I *781:S I *D sky130_fd_sc_hd__mux2_1
*I *783:S I *D sky130_fd_sc_hd__mux2_1
*I *777:S I *D sky130_fd_sc_hd__mux2_1
*I *773:S I *D sky130_fd_sc_hd__mux2_1
*I *775:S I *D sky130_fd_sc_hd__mux2_1
*I *779:S I *D sky130_fd_sc_hd__mux2_1
*I *789:S I *D sky130_fd_sc_hd__mux2_1
*I *787:S I *D sky130_fd_sc_hd__mux2_1
*I *791:S I *D sky130_fd_sc_hd__mux2_1
*I *785:S I *D sky130_fd_sc_hd__mux2_1
*I *780:S I *D sky130_fd_sc_hd__mux2_1
*I *778:S I *D sky130_fd_sc_hd__mux2_1
*I *782:S I *D sky130_fd_sc_hd__mux2_1
*I *786:S I *D sky130_fd_sc_hd__mux2_1
*I *784:S I *D sky130_fd_sc_hd__mux2_1
*I *790:S I *D sky130_fd_sc_hd__mux2_1
*I *774:S I *D sky130_fd_sc_hd__mux2_1
*I *793:S I *D sky130_fd_sc_hd__mux2_1
*I *797:S I *D sky130_fd_sc_hd__mux2_1
*I *795:S I *D sky130_fd_sc_hd__mux2_1
*I *776:S I *D sky130_fd_sc_hd__mux2_1
*I *796:S I *D sky130_fd_sc_hd__mux2_1
*I *772:S I *D sky130_fd_sc_hd__mux2_1
*I *792:S I *D sky130_fd_sc_hd__mux2_1
*I *794:S I *D sky130_fd_sc_hd__mux2_1
*I *624:A I *D sky130_fd_sc_hd__nor2_2
*CAP
1 dco 0.000201588
2 *788:S 2.12792e-05
3 *781:S 0
4 *783:S 0
5 *777:S 9.88385e-05
6 *773:S 0
7 *775:S 0.000246653
8 *779:S 0.00012724
9 *789:S 0
10 *787:S 3.53527e-05
11 *791:S 2.50102e-05
12 *785:S 0.000106614
13 *780:S 0.000178355
14 *778:S 2.70095e-05
15 *782:S 0
16 *786:S 0
17 *784:S 0
18 *790:S 0
19 *774:S 4.61033e-05
20 *793:S 0.000140845
21 *797:S 0.000512203
22 *795:S 0.000173973
23 *776:S 0
24 *796:S 0
25 *772:S 0
26 *792:S 3.58865e-05
27 *794:S 0
28 *624:A 0.000492851
29 *5:260 0.000850855
30 *5:254 0.000857746
31 *5:244 0.00104521
32 *5:233 0.000863704
33 *5:222 0.000433575
34 *5:217 0.000658922
35 *5:194 0.000321967
36 *5:189 0.00059247
37 *5:186 0.000832565
38 *5:164 0.000278253
39 *5:161 0.00142839
40 *5:153 0.000790169
41 *5:148 0.000449924
42 *5:137 0.00107189
43 *5:131 0.00126051
44 *5:121 0.000627923
45 *5:78 0.000988091
46 *5:74 0.000537753
47 *5:72 0.000512161
48 *5:63 0.000733174
49 *5:51 0.000535221
50 *5:42 0.00146374
51 *5:35 0.00167509
52 *5:26 0.000411227
53 *5:8 0.000507622
54 *5:7 0.000444146
55 *624:A *769:A 0.000118128
56 *624:A *794:A0 8.13812e-06
57 *624:A *794:A1 3.5534e-06
58 *624:A *908:A 0.000122378
59 *624:A *284:23 0.000200536
60 *774:S *730:B 6.08467e-05
61 *774:S *774:A1 2.15184e-05
62 *774:S *160:53 0.000107496
63 *775:S *773:A1 0.00017419
64 *775:S *244:8 5.60012e-05
65 *777:S *313:8 2.65831e-05
66 *778:S *36:12 2.58616e-05
67 *780:S *778:A0 3.20407e-05
68 *780:S *780:A1 1.77537e-06
69 *780:S *796:A1 0
70 *780:S *866:A 0
71 *780:S *16:12 0
72 *780:S *48:8 0
73 *780:S *272:11 6.50727e-05
74 *780:S *279:7 2.65831e-05
75 *785:S *738:B1 0
76 *785:S *781:A0 0
77 *785:S *785:A1 0.000122083
78 *785:S *791:A0 0
79 *787:S *787:A1 0.000118166
80 *787:S *789:A1 6.50586e-05
81 *787:S *272:11 2.41483e-05
82 *791:S *791:A0 0.000114271
83 *791:S *21:18 6.98314e-05
84 *791:S *293:13 1.88563e-05
85 *793:S *727:A3 0
86 *793:S *793:A0 0.000114584
87 *793:S *201:11 0.000108441
88 *793:S *201:55 0.000250415
89 *795:S *689:A1 9.05084e-06
90 *795:S *733:A3 1.03594e-05
91 *795:S *223:29 1.56426e-05
92 *795:S *249:21 0.000206696
93 *797:S *672:A 0.000177368
94 *797:S *794:A0 2.18145e-05
95 *797:S *797:A1 3.14978e-05
96 *797:S *119:26 0.000115907
97 *797:S *120:11 4.56831e-05
98 *797:S *185:11 6.75138e-05
99 *797:S *249:21 0.000556044
100 *797:S *322:7 6.08467e-05
101 *5:7 *623:A 0
102 *5:7 *794:A1 0
103 *5:8 *794:A1 7.86825e-06
104 *5:26 *792:A1 1.77537e-06
105 *5:26 *794:A1 5.63869e-05
106 *5:26 *825:TE_B 0.000152842
107 *5:35 *792:A1 7.59782e-05
108 *5:42 *843:A 0.000724656
109 *5:42 *846:A 0.000111708
110 *5:42 *846:TE_B 0.000139764
111 *5:42 *847:TE_B 1.1316e-05
112 *5:42 *258:9 0.000173953
113 *5:42 *259:17 6.50727e-05
114 *5:51 *772:A0 0.000164829
115 *5:51 *790:A0 0
116 *5:51 *225:75 0
117 *5:51 *258:9 0.000259093
118 *5:51 *284:23 0.00010126
119 *5:63 *725:A1 6.50727e-05
120 *5:63 *725:A3 7.68538e-06
121 *5:63 *725:B1 1.03434e-05
122 *5:63 *786:A0 7.0641e-05
123 *5:63 *790:A0 0
124 *5:63 *873:Z 0.000122098
125 *5:63 *37:14 0.000608895
126 *5:63 *44:43 3.31745e-05
127 *5:63 *44:51 0.000158044
128 *5:63 *284:23 8.29929e-05
129 *5:72 *725:A3 0.000164815
130 *5:72 *743:B 0
131 *5:72 *774:A1 3.94229e-05
132 *5:72 *776:A0 2.16355e-05
133 *5:72 *877:A 6.22868e-05
134 *5:72 *878:A 0.000213725
135 *5:72 *37:14 2.42138e-05
136 *5:72 *44:6 2.09495e-05
137 *5:72 *44:20 5.05252e-05
138 *5:72 *312:15 0.000357884
139 *5:74 *743:B 0
140 *5:74 *44:6 0.000158353
141 *5:74 *201:10 1.50262e-05
142 *5:78 *689:A1 9.43419e-05
143 *5:78 *44:6 0.000232994
144 *5:78 *201:10 1.84877e-05
145 *5:78 *223:79 5.23435e-05
146 *5:78 *223:94 0.000242213
147 *5:78 *224:27 2.3301e-05
148 *5:78 *225:63 0.000110415
149 *5:78 *225:67 6.39738e-05
150 *5:78 *258:9 6.42637e-05
151 *5:121 *792:A1 2.33103e-06
152 *5:131 *790:A1 7.86825e-06
153 *5:131 *851:TE 0
154 *5:131 *44:51 2.41338e-05
155 *5:131 *264:8 0
156 *5:137 *851:Z 1.19618e-05
157 *5:137 *872:TE 0
158 *5:137 *44:51 2.56965e-05
159 *5:137 *265:13 0.00012444
160 *5:148 *784:A0 0.000114584
161 *5:148 *784:A1 3.97426e-05
162 *5:148 *786:A1 2.81678e-06
163 *5:148 *874:TE_B 9.46346e-05
164 *5:148 *265:13 0.000129216
165 *5:153 *786:A0 0.000242801
166 *5:153 *870:A 0.000112367
167 *5:161 *782:A0 1.54483e-05
168 *5:161 *786:A0 1.67179e-05
169 *5:161 *879:TE 0.000164257
170 *5:161 *292:7 2.58616e-05
171 *5:164 *778:A0 0.0001195
172 *5:186 *781:A0 2.20471e-05
173 *5:186 *879:A 4.87301e-05
174 *5:186 *879:TE 0.000174704
175 *5:186 *879:Z 0.000365242
176 *5:194 *781:A0 5.01918e-05
177 *5:194 *21:18 2.16355e-05
178 *5:194 *293:13 6.77815e-05
179 *5:217 *781:A0 0.000161956
180 *5:217 *781:A1 0.0001952
181 *5:217 *783:A0 8.77451e-05
182 *5:217 *783:A1 4.03096e-05
183 *5:217 *293:13 0.000258195
184 *5:222 *781:A1 0
185 *5:222 *787:A0 0
186 *5:222 *789:A0 0
187 *5:233 *787:A1 0.000630845
188 *5:233 *789:A1 0.000596147
189 *5:244 *779:A1 0
190 *5:244 *787:A1 0
191 *5:244 *789:A0 0
192 *5:244 *828:A 1.32772e-05
193 *5:244 *893:TE 3.07542e-05
194 *5:244 *893:Z 6.16146e-05
195 *5:244 *900:A 1.86797e-05
196 *5:244 *900:TE 4.66598e-05
197 *5:244 *21:18 0
198 *5:244 *241:6 9.18636e-05
199 *5:244 *308:12 0.000204448
200 *5:254 *828:A 0.00016345
201 *5:254 *313:8 0.000123582
202 *5:260 *773:A1 3.31733e-05
203 *5:260 *777:A0 7.86825e-06
204 *5:260 *777:A1 0.000105605
205 *5:260 *828:A 3.0577e-05
206 *5:260 *829:A 0.000145048
207 *5:260 *831:A 0
208 *5:260 *831:Z 0
209 *5:260 *833:TE_B 7.67372e-05
210 *5:260 *225:22 0
211 *5:260 *242:9 0.000127194
212 *5:260 *244:8 7.84063e-05
213 *5:260 *245:15 7.23668e-05
214 *4:10 *624:A 0.000436811
*RES
1 dco *5:7 4.12039 
2 *5:7 *5:8 0.378612 
3 *5:8 *624:A 31.1608 
4 *5:8 *794:S 13.7491 
5 *5:7 *5:26 6.6074 
6 *5:26 *792:S 14.4725 
7 *5:26 *5:35 4.32351 
8 *5:35 *5:42 27.3111 
9 *5:42 *772:S 9.24915 
10 *5:42 *5:51 11.3501 
11 *5:51 *796:S 13.7491 
12 *5:51 *5:63 18.2972 
13 *5:63 *776:S 9.24915 
14 *5:63 *5:72 16.7568 
15 *5:72 *5:74 3.07775 
16 *5:74 *5:78 15.4675 
17 *5:78 *795:S 21.6378 
18 *5:78 *797:S 30.8168 
19 *5:74 *793:S 19.1023 
20 *5:72 *774:S 15.6059 
21 *5:35 *5:121 5.56926 
22 *5:121 *790:S 13.7491 
23 *5:121 *5:131 13.8416 
24 *5:131 *5:137 13.3828 
25 *5:137 *784:S 9.24915 
26 *5:137 *5:148 15.8501 
27 *5:148 *786:S 9.24915 
28 *5:148 *5:153 7.37864 
29 *5:153 *782:S 9.24915 
30 *5:153 *5:161 9.47649 
31 *5:161 *5:164 6.74725 
32 *5:164 *778:S 14.4725 
33 *5:164 *780:S 18.3808 
34 *5:161 *5:186 15.1913 
35 *5:186 *5:189 5.50149 
36 *5:189 *5:194 9.41035 
37 *5:194 *785:S 21.3269 
38 *5:194 *791:S 11.0817 
39 *5:189 *5:217 16.5325 
40 *5:217 *5:222 15.3998 
41 *5:222 *787:S 11.1059 
42 *5:222 *5:233 7.95736 
43 *5:233 *789:S 9.24915 
44 *5:233 *5:244 29.1381 
45 *5:244 *779:S 12.191 
46 *5:244 *5:254 9.41035 
47 *5:254 *5:260 18.1001 
48 *5:260 *775:S 20.3233 
49 *5:260 *773:S 13.7491 
50 *5:254 *777:S 16.1364 
51 *5:217 *783:S 9.24915 
52 *5:186 *781:S 9.24915 
53 *5:131 *788:S 9.82786 
*END

*D_NET *6 0.00237976
*CONN
*P div[0] I
*I *619:A I *D sky130_fd_sc_hd__inv_2
*I *652:B1 I *D sky130_fd_sc_hd__o221a_2
*CAP
1 div[0] 0.000353978
2 *619:A 0.000534593
3 *652:B1 0
4 *6:11 0.00088857
5 *619:A *651:A 1.41291e-05
6 *619:A *652:A1 7.59897e-06
7 *619:A *652:B2 0.000161298
8 *619:A *747:A 8.62625e-06
9 *619:A *138:6 0.000148982
10 *619:A *144:18 3.91096e-05
11 *6:11 *652:A1 7.373e-05
12 *6:11 *652:C1 1.07248e-05
13 *6:11 *653:A1 0
14 *6:11 *7:5 0
15 *6:11 *144:18 1.1049e-05
16 clockp[1] *619:A 2.57389e-05
17 clockp[1] *6:11 0
18 *4:10 *619:A 0.000101637
*RES
1 div[0] *6:11 10.7763 
2 *6:11 *652:B1 9.24915 
3 *6:11 *619:A 31.0264 
*END

*D_NET *7 0.00282418
*CONN
*P div[1] I
*I *653:A1 I *D sky130_fd_sc_hd__a21oi_2
*I *649:A I *D sky130_fd_sc_hd__nand2_2
*I *652:A1 I *D sky130_fd_sc_hd__o221a_2
*CAP
1 div[1] 0.000232458
2 *653:A1 0.000470433
3 *649:A 0
4 *652:A1 0.000281708
5 *7:8 0.00032076
6 *7:5 0.000741943
7 *652:A1 *652:B2 7.22498e-05
8 *652:A1 *652:C1 0.000156823
9 *652:A1 *653:A2 0
10 *652:A1 *144:18 0.00011818
11 *652:A1 *144:25 0
12 *653:A1 *647:A 5.92342e-05
13 *653:A1 *667:C1 5.74949e-05
14 *653:A1 *8:7 0
15 *653:A1 *138:6 3.21112e-05
16 *653:A1 *146:12 0.000155429
17 *7:5 *8:7 0
18 *7:8 *653:A2 0
19 *7:8 *667:D1 4.40272e-05
20 *619:A *652:A1 7.59897e-06
21 *6:11 *652:A1 7.373e-05
22 *6:11 *653:A1 0
23 *6:11 *7:5 0
*RES
1 div[1] *7:5 0.828089 
2 *7:5 *7:8 4.5779 
3 *7:8 *652:A1 22.7024 
4 *7:8 *649:A 13.7491 
5 *7:5 *653:A1 20.1253 
*END

*D_NET *8 0.00169861
*CONN
*P div[2] I
*I *643:B1 I *D sky130_fd_sc_hd__a22oi_2
*I *646:A1 I *D sky130_fd_sc_hd__o211a_2
*CAP
1 div[2] 0.000304405
2 *643:B1 0.00015322
3 *646:A1 0.000128846
4 *8:7 0.00058647
5 *643:B1 *659:A2 0
6 *643:B1 *136:5 5.31465e-05
7 *643:B1 *154:10 0.000147851
8 *646:A1 *646:C1 0
9 *646:A1 *653:A2 0
10 *646:A1 *659:B2 4.80148e-05
11 *646:A1 *667:D1 0.000228741
12 *646:A1 *142:9 3.12353e-05
13 *646:A1 *154:10 1.66771e-05
14 *8:7 *9:7 0
15 *653:A1 *8:7 0
16 *7:5 *8:7 0
*RES
1 div[2] *8:7 4.34986 
2 *8:7 *646:A1 18.5824 
3 *8:7 *643:B1 18.6301 
*END

*D_NET *9 0.0011633
*CONN
*P div[3] I
*I *644:A I *D sky130_fd_sc_hd__or2_2
*I *643:A1 I *D sky130_fd_sc_hd__a22oi_2
*CAP
1 div[3] 0.000240554
2 *644:A 1.35325e-05
3 *643:A1 0.00015951
4 *9:7 0.000413596
5 *643:A1 *644:B 5.65148e-05
6 *643:A1 *136:5 3.82228e-05
7 *643:A1 *154:10 0.000180427
8 *644:A *644:B 1.58247e-05
9 *644:A *154:10 4.51176e-05
10 *9:7 *10:10 0
11 *8:7 *9:7 0
*RES
1 div[3] *9:7 4.19688 
2 *9:7 *643:A1 18.3125 
3 *9:7 *644:A 14.543 
*END

*D_NET *10 0.00125778
*CONN
*P div[4] I
*I *660:B1 I *D sky130_fd_sc_hd__o221ai_2
*I *658:A I *D sky130_fd_sc_hd__nand2_2
*CAP
1 div[4] 0.00039236
2 *660:B1 0.000153125
3 *658:A 0
4 *10:10 0.000545485
5 *660:B1 *658:B 3.01683e-06
6 *660:B1 *660:B2 7.92757e-06
7 *660:B1 *152:9 0.00011818
8 *660:B1 *154:10 2.41274e-06
9 *10:10 *623:A 0
10 *10:10 *657:B1_N 0
11 *10:10 *820:CLK 3.52699e-05
12 *9:7 *10:10 0
*RES
1 div[4] *10:10 11.2282 
2 *10:10 *658:A 9.24915 
3 *10:10 *660:B1 13.3243 
*END

*D_NET *11 0.00216469
*CONN
*P enable I
*I *623:A I *D sky130_fd_sc_hd__nand2_2
*CAP
1 enable 0.0010719
2 *623:A 0.0010719
3 *623:A *794:A0 0
4 *623:A *820:CLK 0
5 *623:A *906:A 0
6 *623:A *39:8 1.77537e-06
7 *623:A *320:6 1.91246e-05