*SPEF "ieee 1481-1999"
*DESIGN "gpio_control_block"
*DATE "11:11:11 Fri 11 11, 1111"
*VENDOR "OpenRCX"
*PROGRAM "Parallel Extraction"
*VERSION "1.0"
*DESIGN_FLOW "NAME_SCOPE LOCAL" "PIN_CAP NONE"
*DIVIDER /
*DELIMITER :
*BUS_DELIMITER []
*T_UNIT 1 NS
*C_UNIT 1 PF
*R_UNIT 1 OHM
*L_UNIT 1 HENRY

*NAME_MAP
*1 gpio_defaults[0]
*2 gpio_defaults[10]
*3 gpio_defaults[11]
*4 gpio_defaults[12]
*5 gpio_defaults[1]
*6 gpio_defaults[2]
*7 gpio_defaults[3]
*8 gpio_defaults[4]
*9 gpio_defaults[5]
*10 gpio_defaults[6]
*11 gpio_defaults[7]
*12 gpio_defaults[8]
*13 gpio_defaults[9]
*14 mgmt_gpio_in
*15 mgmt_gpio_oeb
*16 mgmt_gpio_out
*17 one
*18 pad_gpio_ana_en
*19 pad_gpio_ana_pol
*20 pad_gpio_ana_sel
*21 pad_gpio_dm[0]
*22 pad_gpio_dm[1]
*23 pad_gpio_dm[2]
*24 pad_gpio_holdover
*25 pad_gpio_ib_mode_sel
*26 pad_gpio_in
*27 pad_gpio_inenb
*28 pad_gpio_out
*29 pad_gpio_outenb
*30 pad_gpio_slow_sel
*31 pad_gpio_vtrip_sel
*32 resetn
*33 resetn_out
*34 serial_clock
*35 serial_clock_out
*36 serial_data_in
*37 serial_data_out
*38 serial_load
*39 serial_load_out
*40 user_gpio_in
*41 user_gpio_oeb
*42 user_gpio_out
*47 zero
*48 _000_
*49 _001_
*50 _002_
*51 _003_
*52 _004_
*53 _005_
*54 _006_
*55 _007_
*56 _008_
*57 _009_
*58 _010_
*59 _011_
*60 _012_
*61 _013_
*62 _014_
*63 _015_
*64 _016_
*65 _017_
*66 _018_
*67 _019_
*68 _020_
*69 _021_
*70 _022_
*71 _023_
*72 _024_
*73 _025_
*74 _026_
*75 _027_
*76 _041_
*77 _042_
*78 _043_
*79 _044_
*80 _045_
*81 _046_
*82 _047_
*83 _048_
*84 _049_
*85 _050_
*86 _051_
*87 _052_
*88 _053_
*89 _054_
*90 _055_
*91 _056_
*92 _057_
*93 _058_
*94 _059_
*95 _060_
*96 _061_
*97 _062_
*98 _063_
*99 _064_
*100 _065_
*101 _066_
*102 _067_
*103 _068_
*104 _069_
*105 _070_
*106 _071_
*107 _072_
*108 _073_
*109 _074_
*110 _075_
*111 _076_
*112 _077_
*113 _078_
*114 _079_
*115 _080_
*116 _081_
*117 _082_
*118 _083_
*119 _084_
*120 _085_
*121 _086_
*122 _087_
*123 _088_
*124 _089_
*125 _090_
*126 _091_
*127 _092_
*128 _093_
*129 _094_
*130 _095_
*131 clknet_0__049_
*132 clknet_0__077_
*133 clknet_0_serial_clock
*134 clknet_0_serial_load
*135 clknet_1_0_0__049_
*136 clknet_1_0_0__077_
*137 clknet_1_0_0_serial_clock
*138 clknet_1_0_0_serial_load
*139 clknet_1_1_0__049_
*140 clknet_1_1_0__077_
*141 clknet_1_1_0_serial_clock
*142 clknet_1_1_0_serial_load
*143 gpio_logic1
*144 gpio_outenb
*145 mgmt_ena
*146 net1
*147 net10
*148 net11
*149 net12
*150 net13
*151 net14
*152 net15
*153 net16
*154 net17
*155 net18
*156 net19
*157 net2
*158 net20
*159 net21
*160 net22
*161 net23
*162 net24
*163 net25
*164 net26
*165 net27
*166 net28
*167 net29
*168 net3
*169 net30
*170 net31
*171 net32
*172 net33
*173 net34
*174 net35
*175 net36
*176 net4
*177 net5
*178 net6
*179 net7
*180 net8
*181 net9
*182 serial_data_post_1
*183 serial_data_post_2
*184 serial_data_pre
*185 shift_register\[0\]
*186 shift_register\[10\]
*187 shift_register\[11\]
*188 shift_register\[1\]
*189 shift_register\[2\]
*190 shift_register\[3\]
*191 shift_register\[4\]
*192 shift_register\[5\]
*193 shift_register\[6\]
*194 shift_register\[7\]
*195 shift_register\[8\]
*196 shift_register\[9\]
*197 ANTENNA__096__A
*198 ANTENNA__098__B
*199 ANTENNA__099__A2
*200 ANTENNA__100__A
*201 ANTENNA__101__A
*202 ANTENNA__102__A
*203 ANTENNA__106__A
*204 ANTENNA__109__A
*205 ANTENNA__110__B
*206 ANTENNA__114__A
*207 ANTENNA__116__B_N
*208 ANTENNA__118__B
*209 ANTENNA__121__B_N
*210 ANTENNA__124__B
*211 ANTENNA__127__B_N
*212 ANTENNA__129__B
*213 ANTENNA__132__B_N
*214 ANTENNA__134__B
*215 ANTENNA__137__B_N
*216 ANTENNA__139__B
*217 ANTENNA__144__B_N
*218 ANTENNA__146__B
*219 ANTENNA__149__B_N
*220 ANTENNA__152__B
*221 ANTENNA__155__B_N
*222 ANTENNA__157__B
*223 ANTENNA__160__B_N
*224 ANTENNA__162__B
*225 ANTENNA__165__B_N
*226 ANTENNA__167__B
*227 ANTENNA__170__B_N
*228 ANTENNA__172__B
*229 ANTENNA__175__B_N
*230 ANTENNA__177__B
*231 ANTENNA__180__B_N
*232 ANTENNA__195__D
*233 ANTENNA__195__RESET_B
*234 ANTENNA__196__RESET_B
*235 ANTENNA__197__RESET_B
*236 ANTENNA__198__RESET_B
*237 ANTENNA__199__RESET_B
*238 ANTENNA__200__RESET_B
*239 ANTENNA__201__RESET_B
*240 ANTENNA__202__RESET_B
*241 ANTENNA__203__RESET_B
*242 ANTENNA__204__RESET_B
*243 ANTENNA__205__RESET_B
*244 ANTENNA__206__RESET_B
*245 ANTENNA__207__RESET_B
*246 ANTENNA__208__A
*247 ANTENNA__211__A
*248 ANTENNA_clkbuf_0_serial_clock_A
*249 ANTENNA_clkbuf_0_serial_load_A
*250 FILLER_0_72
*251 FILLER_10_27
*252 FILLER_10_3
*253 FILLER_11_24
*254 FILLER_11_60
*255 FILLER_12_3
*256 FILLER_12_93
*257 FILLER_13_3
*258 FILLER_13_69
*259 FILLER_14_3
*260 FILLER_14_42
*261 FILLER_14_93
*262 FILLER_15_24
*263 FILLER_15_93
*264 FILLER_16_27
*265 FILLER_16_3
*266 FILLER_16_93
*267 FILLER_17_3
*268 FILLER_18_27
*269 FILLER_18_3
*270 FILLER_18_31
*271 FILLER_18_61
*272 FILLER_18_80
*273 FILLER_1_26
*274 FILLER_1_34
*275 FILLER_1_78
*276 FILLER_1_82
*277 FILLER_1_93
*278 FILLER_2_47
*279 FILLER_3_26
*280 FILLER_3_57
*281 FILLER_3_93
*282 FILLER_5_26
*283 FILLER_6_26
*284 FILLER_7_78
*285 FILLER_8_37
*286 FILLER_9_3
*287 PHY_0
*288 PHY_1
*289 PHY_10
*290 PHY_11
*291 PHY_12
*292 PHY_13
*293 PHY_14
*294 PHY_15
*295 PHY_16
*296 PHY_17
*297 PHY_18
*298 PHY_19
*299 PHY_2
*300 PHY_20
*301 PHY_21
*302 PHY_22
*303 PHY_23
*304 PHY_24
*305 PHY_25
*306 PHY_26
*307 PHY_27
*308 PHY_28
*309 PHY_29
*310 PHY_3
*311 PHY_30
*312 PHY_31
*313 PHY_32
*314 PHY_33
*315 PHY_34
*316 PHY_35
*317 PHY_36
*318 PHY_37
*319 PHY_4
*320 PHY_5
*321 PHY_6
*322 PHY_7
*323 PHY_8
*324 PHY_9
*325 TAP_38
*326 TAP_39
*327 TAP_40
*328 TAP_41
*329 TAP_42
*330 TAP_43
*331 TAP_44
*332 TAP_45
*333 TAP_46
*334 TAP_47
*335 TAP_48
*336 TAP_49
*337 TAP_50
*338 TAP_51
*339 TAP_52
*340 TAP_53
*341 TAP_54
*342 TAP_55
*343 TAP_56
*344 TAP_57
*345 TAP_58
*346 TAP_59
*347 TAP_60
*348 TAP_61
*349 TAP_62
*350 TAP_63
*351 TAP_64
*352 TAP_65
*353 _096_
*354 _097_
*355 _098_
*356 _099_
*357 _100_
*358 _101_
*359 _102_
*360 _103_
*361 _104_
*362 _105_
*363 _106_
*364 _107_
*365 _108_
*366 _109_
*367 _110_
*368 _111_
*369 _112_
*370 _113__4
*371 _114_
*372 _115_
*373 _116_
*374 _117_
*375 _118_
*376 _119_
*377 _120__5
*378 _121_
*379 _122_
*380 _123_
*381 _124_
*382 _125_
*383 _126__6
*384 _127_
*385 _128_
*386 _129_
*387 _130_
*388 _131__7
*389 _132_
*390 _133_
*391 _134_
*392 _135_
*393 _136__8
*394 _137_
*395 _138_
*396 _139_
*397 _140_
*398 _141_
*399 _142__9
*400 _143_
*401 _144_
*402 _145_
*403 _146_
*404 _147_
*405 _148__10
*406 _149_
*407 _150_
*408 _151_
*409 _152_
*410 _153_
*411 _154__11
*412 _155_
*413 _156_
*414 _157_
*415 _158_
*416 _159__12
*417 _160_
*418 _161_
*419 _162_
*420 _163_
*421 _164__13
*422 _165_
*423 _166_
*424 _167_
*425 _168_
*426 _169__1
*427 _170_
*428 _171_
*429 _172_
*430 _173_
*431 _174__2
*432 _175_
*433 _176_
*434 _177_
*435 _178_
*436 _179__3
*437 _180_
*438 _181_
*439 _182_
*440 _183_
*441 _184_
*442 _185_
*443 _186_
*444 _187_
*445 _188_
*446 _189_
*447 _190_
*448 _191_
*449 _192_
*450 _193_
*451 _194_
*452 _195_
*453 _196_
*454 _197_
*455 _198_
*456 _199_
*457 _200_
*458 _201_
*459 _202_
*460 _203_
*461 _204_
*462 _205_
*463 _206_
*464 _207_
*465 _208_
*466 _209_
*467 _210_
*468 _211_
*469 clkbuf_0__049_
*470 clkbuf_0__077_
*471 clkbuf_0_serial_clock
*472 clkbuf_0_serial_load
*473 clkbuf_1_0_0__049_
*474 clkbuf_1_0_0__077_
*475 clkbuf_1_0_0_serial_clock
*476 clkbuf_1_0_0_serial_load
*477 clkbuf_1_1_0__049_
*478 clkbuf_1_1_0__077_
*479 clkbuf_1_1_0_serial_clock
*480 clkbuf_1_1_0_serial_load
*481 const_source
*482 data_delay_1
*483 data_delay_2
*484 gpio_in_buf
*485 gpio_logic_high
*486 hold1
*487 hold10
*488 hold11
*489 hold12
*490 hold13
*491 hold14
*492 hold15
*493 hold16
*494 hold17
*495 hold18
*496 hold19
*497 hold2
*498 hold20
*499 hold21
*500 hold22
*501 hold23
*502 hold3
*503 hold4
*504 hold5
*505 hold6
*506 hold7
*507 hold8
*508 hold9

*PORTS
gpio_defaults[0] I
gpio_defaults[10] I
gpio_defaults[11] I
gpio_defaults[12] I
gpio_defaults[1] I
gpio_defaults[2] I
gpio_defaults[3] I
gpio_defaults[4] I
gpio_defaults[5] I
gpio_defaults[6] I
gpio_defaults[7] I
gpio_defaults[8] I
gpio_defaults[9] I
mgmt_gpio_in O
mgmt_gpio_oeb I
mgmt_gpio_out I
one O
pad_gpio_ana_en O
pad_gpio_ana_pol O
pad_gpio_ana_sel O
pad_gpio_dm[0] O
pad_gpio_dm[1] O
pad_gpio_dm[2] O
pad_gpio_holdover O
pad_gpio_ib_mode_sel O
pad_gpio_in I
pad_gpio_inenb O
pad_gpio_out O
pad_gpio_outenb O
pad_gpio_slow_sel O
pad_gpio_vtrip_sel O
resetn I
resetn_out O
serial_clock I
serial_clock_out O
serial_data_in I
serial_data_out O
serial_load I
serial_load_out O
user_gpio_in O
user_gpio_oeb I
user_gpio_out I
zero O

*D_NET *1 0.00462848
*CONN
*P gpio_defaults[0] I
*I *205:DIODE I *D sky130_fd_sc_hd__diode_2
*I *367:B I *D sky130_fd_sc_hd__or2_2
*I *207:DIODE I *D sky130_fd_sc_hd__diode_2
*I *373:B_N I *D sky130_fd_sc_hd__or2b_2
*CAP
1 gpio_defaults[0] 0.000349196
2 *205:DIODE 8.68812e-05
3 *367:B 0
4 *207:DIODE 0
5 *373:B_N 0.000432786
6 *1:34 0.00038402
7 *1:11 0.000471417
8 *1:9 0.000684966
9 *205:DIODE *367:A 4.58907e-05
10 *205:DIODE *368:A 6.55651e-05
11 *205:DIODE *439:SET_B 4.81452e-05
12 *205:DIODE *6:11 2.74378e-05
13 *373:B_N *374:A 0.000320251
14 *373:B_N *474:A 0.000449878
15 *373:B_N *493:A 6.46815e-05
16 *373:B_N *505:A 0.000208621
17 *373:B_N *5:12 0.000248651
18 *373:B_N *6:23 0.000206696
19 *1:9 *5:12 0.000221502
20 *1:11 *5:12 6.34391e-05
21 *1:34 *374:A 6.27718e-05
22 *1:34 *439:SET_B 6.64392e-05
23 *1:34 *5:12 4.35492e-05
24 *1:34 *6:11 7.56961e-05
*RES
1 gpio_defaults[0] *1:9 11.5416 
2 *1:9 *1:11 1.20912 
3 *1:11 *373:B_N 30.6356 
4 *1:11 *207:DIODE 13.7491 
5 *1:9 *1:34 12.1179 
6 *1:34 *367:B 9.24915 
7 *1:34 *205:DIODE 12.191 
*END

*D_NET *2 0.00708392
*CONN
*P gpio_defaults[10] I
*I *409:B I *D sky130_fd_sc_hd__or2_2
*I *220:DIODE I *D sky130_fd_sc_hd__diode_2
*I *412:B_N I *D sky130_fd_sc_hd__or2b_2
*I *221:DIODE I *D sky130_fd_sc_hd__diode_2
*CAP
1 gpio_defaults[10] 0.000321192
2 *409:B 0
3 *220:DIODE 0.000769301
4 *412:B_N 0
5 *221:DIODE 0
6 *2:28 0.00111183
7 *2:19 0.00108706
8 *2:8 0.00106572
9 *220:DIODE pad_gpio_dm[0] 0.000101411
10 *220:DIODE pad_gpio_outenb 5.04829e-06
11 *220:DIODE *361:A2 0.000158451
12 *220:DIODE *445:RESET_B 2.11857e-05
13 *220:DIODE *446:SET_B 1.72594e-05
14 *220:DIODE *472:A 0.000142396
15 *220:DIODE *90:13 6.11872e-05
16 *220:DIODE *91:14 9.80242e-07
17 *220:DIODE *144:11 3.82222e-05
18 *220:DIODE *145:27 9.33018e-05
19 *2:8 *3:7 0.000166655
20 *2:8 *13:7 0
21 *2:8 *139:44 0.000211417
22 *2:19 *218:DIODE 9.30015e-05
23 *2:19 *381:B 9.4134e-05
24 *2:19 *404:A 0.000101104
25 *2:19 *441:CLK_N 0.000120872
26 *2:19 *480:A 0.000309859
27 *2:19 *3:7 0.000168051
28 *2:19 *4:19 0
29 *2:19 *12:22 2.48716e-05
30 *2:19 *12:25 4.08414e-05
31 *2:19 *32:246 2.56232e-05
32 *2:19 *36:33 9.11892e-05
33 *2:19 *139:44 4.81452e-05
34 *2:28 *447:D 0.000110458
35 *2:28 *479:A 0.000110297
36 *2:28 *32:41 0.000110306
37 *2:28 *85:37 0.000159189
38 *2:28 *85:39 7.5301e-06
39 *2:28 *88:10 3.31745e-05
40 *2:28 *91:14 2.07087e-05
41 *2:28 *113:28 4.19452e-05
*RES
1 gpio_defaults[10] *2:8 12.9939 
2 *2:8 *221:DIODE 9.24915 
3 *2:8 *2:19 31.0722 
4 *2:19 *412:B_N 9.24915 
5 *2:19 *2:28 9.23536 
6 *2:28 *220:DIODE 34.4445 
7 *2:28 *409:B 9.24915 
*END

*D_NET *3 0.00960949
*CONN
*P gpio_defaults[11] I
*I *222:DIODE I *D sky130_fd_sc_hd__diode_2
*I *414:B I *D sky130_fd_sc_hd__or2_2
*I *417:B_N I *D sky130_fd_sc_hd__or2b_2
*I *223:DIODE I *D sky130_fd_sc_hd__diode_2
*CAP
1 gpio_defaults[11] 0.00121942
2 *222:DIODE 0.000537049
3 *414:B 0
4 *417:B_N 0.00021662
5 *223:DIODE 0.000139046
6 *3:28 0.00101202
7 *3:9 0.000599722
8 *3:7 0.00193845
9 *222:DIODE pad_gpio_ib_mode_sel 1.3808e-05
10 *222:DIODE *361:A1 2.58757e-05
11 *222:DIODE *361:A2 2.16355e-05
12 *222:DIODE *362:B2 0.000178768
13 *222:DIODE *414:A 5.45483e-05
14 *222:DIODE *415:A 4.05132e-05
15 *223:DIODE *429:B 2.41338e-05
16 *223:DIODE *433:A 0.000112361
17 *223:DIODE *445:SET_B 7.74044e-06
18 *223:DIODE *473:A 3.61356e-05
19 *223:DIODE *89:17 4.43331e-05
20 *417:B_N *419:B 1.41976e-05
21 *417:B_N *476:A 0.000208048
22 *417:B_N *89:34 0.000456656
23 *417:B_N *131:7 0.000154842
24 *3:7 *372:A 1.75816e-05
25 *3:7 *389:B_N 0.000174256
26 *3:7 *397:A 7.67036e-05
27 *3:7 *404:A 4.4153e-05
28 *3:7 *443:RESET_B 8.62381e-05
29 *3:7 *444:RESET_B 0.000141342
30 *3:7 *445:SET_B 0.00010316
31 *3:7 *477:A 1.18596e-05
32 *3:7 *480:A 0
33 *3:7 *4:19 0
34 *3:7 *12:22 7.26748e-05
35 *3:7 *13:7 0
36 *3:7 *36:33 0.000334167
37 *3:7 *113:52 8.70662e-06
38 *3:7 *141:57 0.000265298
39 *3:9 *444:RESET_B 3.00174e-06
40 *3:9 *445:SET_B 9.03376e-05
41 *3:9 *473:A 1.26939e-05
42 *3:9 *477:A 7.03191e-05
43 *3:28 pad_gpio_ib_mode_sel 0.000460336
44 *3:28 *217:DIODE 1.03403e-06
45 *3:28 *409:A 0.000144478
46 *3:28 *414:A 3.96696e-05
47 *3:28 *134:7 6.08467e-05
48 *2:8 *3:7 0.000166655
49 *2:19 *3:7 0.000168051
*RES
1 gpio_defaults[11] *3:7 38.6917 
2 *3:7 *3:9 6.81502 
3 *3:9 *223:DIODE 18.1049 
4 *3:9 *417:B_N 21.6824 
5 *3:7 *3:28 18.5339 
6 *3:28 *414:B 9.24915 
7 *3:28 *222:DIODE 18.8944 
*END

*D_NET *4 0.011846
*CONN
*P gpio_defaults[12] I
*I *422:B_N I *D sky130_fd_sc_hd__or2b_2
*I *419:B I *D sky130_fd_sc_hd__or2_2
*I *225:DIODE I *D sky130_fd_sc_hd__diode_2
*I *224:DIODE I *D sky130_fd_sc_hd__diode_2
*CAP
1 gpio_defaults[12] 0.00146703
2 *422:B_N 0.000535171
3 *419:B 0.000173872
4 *225:DIODE 6.21137e-05
5 *224:DIODE 0
6 *4:26 0.000785289
7 *4:21 0.00100303
8 *4:19 0.00210819
9 *225:DIODE *184:7 2.41274e-06
10 *419:B *89:34 0.000231986
11 *419:B *90:13 0.000116505
12 *422:B_N pad_gpio_ib_mode_sel 0.000720099
13 *422:B_N *446:SET_B 0.000133612
14 *422:B_N *34:13 0.000252179
15 *422:B_N *40:5 0.000250254
16 *4:19 *230:DIODE 7.06522e-05
17 *4:19 *381:B 8.29376e-05
18 *4:19 *382:A 9.63354e-05
19 *4:19 *387:A 0.00016622
20 *4:19 *408:A 0.000198064
21 *4:19 *445:RESET_B 0.000123381
22 *4:19 *447:D 0.000408171
23 *4:19 *12:25 2.29125e-05
24 *4:19 *32:30 7.86825e-06
25 *4:19 *32:32 6.42402e-05
26 *4:19 *32:153 5.76716e-05
27 *4:19 *32:246 6.49051e-05
28 *4:19 *32:261 0.000159607
29 *4:19 *78:19 1.02634e-05
30 *4:19 *88:10 0.000140171
31 *4:19 *113:8 3.30222e-05
32 *4:19 *148:16 0
33 *4:19 *195:12 0.000460865
34 *4:21 *447:D 0.000244613
35 *4:21 *195:12 0.000237611
36 *4:26 *447:D 0.000229151
37 *4:26 *448:D 0.000187314
38 *4:26 *464:RESET_B 2.52414e-06
39 *4:26 *159:15 9.43016e-05
40 *4:26 *184:7 3.64034e-05
41 *4:26 *195:12 0.00079081
42 *417:B_N *419:B 1.41976e-05
43 *2:19 *4:19 0
44 *3:7 *4:19 0
*RES
1 gpio_defaults[12] *4:19 47.306 
2 *4:19 *4:21 4.73876 
3 *4:21 *4:26 27.1381 
4 *4:26 *224:DIODE 9.24915 
5 *4:26 *225:DIODE 10.5271 
6 *4:21 *419:B 19.1264 
7 *4:19 *422:B_N 35.1775 
*END

*D_NET *5 0.0121753
*CONN
*P gpio_defaults[1] I
*I *218:DIODE I *D sky130_fd_sc_hd__diode_2
*I *403:B I *D sky130_fd_sc_hd__or2_2
*I *406:B_N I *D sky130_fd_sc_hd__or2b_2
*I *219:DIODE I *D sky130_fd_sc_hd__diode_2
*CAP
1 gpio_defaults[1] 0.000803655
2 *218:DIODE 0.000911754
3 *403:B 0
4 *406:B_N 0
5 *219:DIODE 0
6 *5:38 0.0012029
7 *5:27 0.0013345
8 *5:16 0.00208128
9 *5:12 0.00184159
10 *218:DIODE *461:RESET_B 0.000242692
11 *218:DIODE *466:A 7.09666e-06
12 *218:DIODE *467:A 2.41274e-06
13 *218:DIODE *32:29 0.00016243
14 *218:DIODE *36:33 0.000119469
15 *218:DIODE *76:7 1.65872e-05
16 *218:DIODE *76:9 0.000107496
17 *218:DIODE *78:19 0.000123667
18 *218:DIODE *113:52 0.000497505
19 *218:DIODE *141:68 1.5714e-05
20 *5:12 *216:DIODE 0.000146328
21 *5:12 *232:DIODE 0.000198319
22 *5:12 *440:D 0.000110458
23 *5:12 *452:RESET_B 6.57318e-05
24 *5:12 *474:A 0.000176652
25 *5:12 *492:A 6.46815e-05
26 *5:12 *505:A 4.6329e-05
27 *5:12 *6:11 0
28 *5:12 *136:11 0.000112361
29 *5:16 *440:D 4.78409e-05
30 *5:16 *444:D 2.22974e-05
31 *5:16 *488:A 4.17531e-06
32 *5:27 *217:DIODE 4.58102e-06
33 *5:27 *444:D 5.16355e-05
34 *5:27 *24:10 0.000497428
35 *5:38 *477:A 7.97972e-05
36 *5:38 *11:23 3.49884e-05
37 *5:38 *24:10 0
38 *5:38 *32:41 0.000162739
39 *5:38 *76:9 0.000144405
40 *5:38 *76:14 6.3657e-05
41 *373:B_N *5:12 0.000248651
42 *1:9 *5:12 0.000221502
43 *1:11 *5:12 6.34391e-05
44 *1:34 *5:12 4.35492e-05
45 *2:19 *218:DIODE 9.30015e-05
*RES
1 gpio_defaults[1] *5:12 36.5034 
2 *5:12 *5:16 24.7803 
3 *5:16 *219:DIODE 9.24915 
4 *5:16 *5:27 28.5975 
5 *5:27 *406:B_N 9.24915 
6 *5:27 *5:38 17.1281 
7 *5:38 *403:B 9.24915 
8 *5:38 *218:DIODE 35.3863 
*END

*D_NET *6 0.00575309
*CONN
*P gpio_defaults[2] I
*I *209:DIODE I *D sky130_fd_sc_hd__diode_2
*I *378:B_N I *D sky130_fd_sc_hd__or2b_2
*I *375:B I *D sky130_fd_sc_hd__or2_2
*I *208:DIODE I *D sky130_fd_sc_hd__diode_2
*CAP
1 gpio_defaults[2] 0.000543199
2 *209:DIODE 0
3 *378:B_N 0
4 *375:B 2.68505e-05
5 *208:DIODE 0.0003674
6 *6:23 0.000829646
7 *6:15 0.000580196
8 *6:11 0.000688
9 *208:DIODE *440:CLK_N 0.000174676
10 *208:DIODE *452:CLK 2.99048e-05
11 *375:B *136:11 6.36477e-05
12 *6:11 *367:A 0.000360967
13 *6:11 *374:A 2.58616e-05
14 *6:11 *439:RESET_B 7.98171e-06
15 *6:11 *7:8 0.000711036
16 *6:11 *9:15 3.67702e-05
17 *6:11 *10:9 9.90254e-05
18 *6:15 *439:RESET_B 0.000114495
19 *6:15 *9:15 9.02471e-05
20 *6:15 *10:9 0.000314282
21 *6:23 *452:CLK 1.45799e-05
22 *6:23 *474:A 3.33645e-05
23 *6:23 *8:13 0.000331135
24 *205:DIODE *6:11 2.74378e-05
25 *373:B_N *6:23 0.000206696
26 *1:34 *6:11 7.56961e-05
27 *5:12 *6:11 0
*RES
1 gpio_defaults[2] *6:11 28.0602 
2 *6:11 *6:15 10.4845 
3 *6:15 *6:23 16.6776 
4 *6:23 *208:DIODE 23.6509 
5 *6:23 *375:B 14.4725 
6 *6:15 *378:B_N 9.24915 
7 *6:11 *209:DIODE 13.7491 
*END

*D_NET *7 0.00348542
*CONN
*P gpio_defaults[3] I
*I *214:DIODE I *D sky130_fd_sc_hd__diode_2
*I *391:B I *D sky130_fd_sc_hd__or2_2
*I *394:B_N I *D sky130_fd_sc_hd__or2b_2
*I *215:DIODE I *D sky130_fd_sc_hd__diode_2
*CAP
1 gpio_defaults[3] 0.000809274
2 *214:DIODE 0
3 *391:B 8.62856e-05
4 *394:B_N 0.000108531
5 *215:DIODE 0
6 *7:18 0.000313463
7 *7:14 0.000201272
8 *7:8 0.0008919
9 *391:B *139:44 1.41976e-05
10 *394:B_N *395:A 0.000139513
11 *394:B_N *443:SET_B 0.000184089
12 *394:B_N *10:9 0
13 *394:B_N *145:11 2.58616e-05
14 *7:8 *8:13 0
15 *6:11 *7:8 0.000711036
*RES
1 gpio_defaults[3] *7:8 20.2037 
2 *7:8 *215:DIODE 9.24915 
3 *7:8 *7:14 1.278 
4 *7:14 *7:18 2.82124 
5 *7:18 *394:B_N 22.4655 
6 *7:18 *391:B 11.1059 
7 *7:14 *214:DIODE 9.24915 
*END

*D_NET *8 0.00929207
*CONN
*P gpio_defaults[4] I
*I *396:B I *D sky130_fd_sc_hd__or2_2
*I *401:B_N I *D sky130_fd_sc_hd__or2b_2
*I *217:DIODE I *D sky130_fd_sc_hd__diode_2
*I *216:DIODE I *D sky130_fd_sc_hd__diode_2
*CAP
1 gpio_defaults[4] 0.000833236
2 *396:B 5.62364e-05
3 *401:B_N 2.86212e-05
4 *217:DIODE 0.000625594
5 *216:DIODE 0.000421471
6 *8:43 0.000772977
7 *8:38 0.000668072
8 *8:13 0.00174778
9 *216:DIODE *232:DIODE 3.89804e-05
10 *216:DIODE *376:A 5.04829e-06
11 *216:DIODE *452:RESET_B 0.000168186
12 *216:DIODE *492:A 3.00829e-05
13 *216:DIODE *136:11 0.000310823
14 *217:DIODE pad_gpio_ib_mode_sel 0.000107169
15 *217:DIODE *444:RESET_B 5.35264e-05
16 *217:DIODE *24:10 0.000618246
17 *217:DIODE *100:12 0.000625214
18 *396:B *24:10 1.65872e-05
19 *396:B *76:14 0.000212757
20 *396:B *165:16 1.96456e-05
21 *401:B_N *32:41 6.08467e-05
22 *8:13 *367:A 0.000147995
23 *8:13 *374:A 0
24 *8:13 *376:A 1.07549e-05
25 *8:13 *452:CLK 0.000160001
26 *8:13 *9:15 2.83365e-05
27 *8:38 *376:A 4.24629e-05
28 *8:38 *393:A 9.98345e-05
29 *8:38 *398:A 6.13051e-05
30 *8:38 *443:CLK_N 0.000102655
31 *8:38 *24:10 9.34558e-05
32 *8:38 *76:14 1.50924e-05
33 *8:38 *136:11 0.000190589
34 *8:38 *139:19 4.20594e-05
35 *8:38 *170:11 7.21839e-05
36 *8:43 *11:23 1.07549e-05
37 *8:43 *24:10 0.000144464
38 *8:43 *100:12 0.00016595
39 *3:28 *217:DIODE 1.03403e-06
40 *5:12 *216:DIODE 0.000146328
41 *5:27 *217:DIODE 4.58102e-06
42 *6:23 *8:13 0.000331135
43 *7:8 *8:13 0
*RES
1 gpio_defaults[4] *8:13 28.0472 
2 *8:13 *216:DIODE 31.1169 
3 *8:13 *8:38 23.7003 
4 *8:38 *8:43 8.57172 
5 *8:43 *217:DIODE 31.5407 
6 *8:43 *401:B_N 14.4725 
7 *8:38 *396:B 11.6364 
*END

*D_NET *9 0.0102209
*CONN
*P gpio_defaults[5] I
*I *424:B I *D sky130_fd_sc_hd__or2_2
*I *226:DIODE I *D sky130_fd_sc_hd__diode_2
*I *427:B_N I *D sky130_fd_sc_hd__or2b_2
*I *227:DIODE I *D sky130_fd_sc_hd__diode_2
*CAP
1 gpio_defaults[5] 0.000729251
2 *424:B 0.000144202
3 *226:DIODE 0.000242814
4 *427:B_N 1.33895e-05
5 *227:DIODE 0.000208897
6 *9:45 0.000711549
7 *9:31 0.000390567
8 *9:17 0.000926568
9 *9:15 0.00139428
10 *226:DIODE *449:RESET_B 5.04829e-06
11 *226:DIODE *450:RESET_B 0.000161243
12 *226:DIODE *456:CLK 0.000270259
13 *226:DIODE *475:A 0.000114594
14 *226:DIODE *137:20 4.9e-05
15 *227:DIODE *458:RESET_B 0.000107496
16 *227:DIODE *10:11 0.00010872
17 *227:DIODE *32:57 6.36477e-05
18 *424:B *424:A 1.37921e-05
19 *424:B *429:B 8.09084e-05
20 *424:B *433:A 0.000263135
21 *424:B *456:CLK 8.94675e-05
22 *427:B_N *431:A 1.05106e-05
23 *9:15 *367:A 0.000529785
24 *9:15 *439:RESET_B 0.000122978
25 *9:15 *440:RESET_B 2.88833e-05
26 *9:15 *443:CLK_N 0.00010872
27 *9:15 *10:9 0.00028417
28 *9:17 *440:RESET_B 0.000149842
29 *9:17 *440:SET_B 9.35979e-05
30 *9:17 *445:CLK_N 0.0001195
31 *9:17 *10:9 0.000716032
32 *9:17 *10:11 5.79499e-05
33 *9:17 *110:11 0.000194976
34 *9:17 *110:39 0.000757087
35 *9:31 *431:A 3.21461e-05
36 *9:31 *450:CLK_N 0.000107496
37 *9:31 *110:11 3.99086e-06
38 *9:45 *425:A 0.000203756
39 *9:45 *428:A 6.08467e-05
40 *9:45 *429:B 7.23857e-05
41 *9:45 *431:A 0.000107198
42 *9:45 *450:CLK_N 0.00019519
43 *9:45 *10:30 1.96344e-05
44 *6:11 *9:15 3.67702e-05
45 *6:15 *9:15 9.02471e-05
46 *8:13 *9:15 2.83365e-05
*RES
1 gpio_defaults[5] *9:15 24.5121 
2 *9:15 *9:17 26.5395 
3 *9:17 *227:DIODE 17.829 
4 *9:17 *9:31 6.35672 
5 *9:31 *427:B_N 9.82786 
6 *9:31 *9:45 12.6261 
7 *9:45 *226:DIODE 21.5663 
8 *9:45 *424:B 19.5116 
*END

*D_NET *10 0.00882394
*CONN
*P gpio_defaults[6] I
*I *429:B I *D sky130_fd_sc_hd__or2_2
*I *432:B_N I *D sky130_fd_sc_hd__or2b_2
*I *228:DIODE I *D sky130_fd_sc_hd__diode_2
*I *229:DIODE I *D sky130_fd_sc_hd__diode_2
*CAP
1 gpio_defaults[6] 0.00145959
2 *429:B 0.000426405
3 *432:B_N 0
4 *228:DIODE 2.94646e-05
5 *229:DIODE 5.71155e-05
6 *10:30 0.000541311
7 *10:11 0.000221247
8 *10:9 0.00170916
9 *228:DIODE *247:DIODE 6.08467e-05
10 *228:DIODE *143:17 0.000113713
11 *229:DIODE *247:DIODE 9.35846e-05
12 *229:DIODE *457:D 0.000113096
13 *429:B *425:A 0.000253215
14 *429:B *433:A 1.18842e-05
15 *429:B *437:A 3.40176e-05
16 *429:B *110:17 7.92757e-06
17 *10:9 *379:A 0.000314282
18 *10:9 *395:A 0
19 *10:9 *398:A 0.000251948
20 *10:9 *440:SET_B 9.35979e-05
21 *10:9 *457:D 0.000264495
22 *10:9 *489:A 3.90219e-05
23 *10:9 *11:8 0
24 *10:9 *12:8 0
25 *10:9 *165:16 3.57196e-05
26 *10:11 *457:D 0.000207533
27 *10:30 *431:A 0.000305634
28 *10:30 *110:11 0.000107496
29 *10:30 *110:17 0.000294398
30 *223:DIODE *429:B 2.41338e-05
31 *227:DIODE *10:11 0.00010872
32 *394:B_N *10:9 0
33 *424:B *429:B 8.09084e-05
34 *6:11 *10:9 9.90254e-05
35 *6:15 *10:9 0.000314282
36 *9:15 *10:9 0.00028417
37 *9:17 *10:9 0.000716032
38 *9:17 *10:11 5.79499e-05
39 *9:45 *429:B 7.23857e-05
40 *9:45 *10:30 1.96344e-05
*RES
1 gpio_defaults[6] *10:9 47.2899 
2 *10:9 *10:11 4.32351 
3 *10:11 *229:DIODE 15.9964 
4 *10:11 *228:DIODE 15.0271 
5 *10:9 *10:30 10.0943 
6 *10:30 *432:B_N 9.24915 
7 *10:30 *429:B 19.4731 
*END

*D_NET *11 0.0108694
*CONN
*P gpio_defaults[7] I
*I *230:DIODE I *D sky130_fd_sc_hd__diode_2
*I *434:B I *D sky130_fd_sc_hd__or2_2
*I *437:B_N I *D sky130_fd_sc_hd__or2b_2
*I *231:DIODE I *D sky130_fd_sc_hd__diode_2
*CAP
1 gpio_defaults[7] 0.000504659
2 *230:DIODE 0.000698703
3 *434:B 1.63474e-05
4 *437:B_N 7.2618e-05
5 *231:DIODE 0.000617813
6 *11:23 0.00159352
7 *11:15 0.00150056
8 *11:8 0.00178448
9 *231:DIODE *402:A 1.37566e-05
10 *231:DIODE *425:A 0.000279588
11 *231:DIODE *426:A 9.95542e-06
12 *231:DIODE *435:A 7.66667e-05
13 *231:DIODE *436:A 8.23171e-06
14 *231:DIODE *438:A 0.000513747
15 *231:DIODE *449:CLK_N 1.29665e-05
16 *231:DIODE *100:12 5.80533e-06
17 *231:DIODE *138:6 8.36429e-06
18 *434:B *398:A 6.3657e-05
19 *434:B *477:A 0.000114594
20 *434:B *142:5 5.09367e-05
21 *437:B_N *469:A 0.00015113
22 *437:B_N *476:A 0.000353749
23 *11:8 *12:8 0
24 *11:15 *213:DIODE 8.74753e-05
25 *11:15 *470:A 0.00027932
26 *11:15 *12:8 3.77736e-05
27 *11:15 *13:7 0.000107643
28 *11:15 *13:9 4.00886e-05
29 *11:15 *76:14 2.90059e-05
30 *11:15 *76:33 0.000305082
31 *11:23 *402:A 0.000833309
32 *11:23 *24:10 0.000116419
33 *11:23 *76:14 4.7798e-05
34 *11:23 *100:12 0.000200384
35 *11:23 *139:19 0.000216836
36 *4:19 *230:DIODE 7.06522e-05
37 *5:38 *11:23 3.49884e-05
38 *8:43 *11:23 1.07549e-05
39 *10:9 *11:8 0
*RES
1 gpio_defaults[7] *11:8 13.9665 
2 *11:8 *11:15 21.7696 
3 *11:15 *11:23 30.012 
4 *11:23 *231:DIODE 30.2508 
5 *11:23 *437:B_N 17.8002 
6 *11:15 *434:B 15.0271 
7 *11:8 *230:DIODE 28.7083 
*END

*D_NET *12 0.00395802
*CONN
*P gpio_defaults[8] I
*I *211:DIODE I *D sky130_fd_sc_hd__diode_2
*I *210:DIODE I *D sky130_fd_sc_hd__diode_2
*I *384:B_N I *D sky130_fd_sc_hd__or2b_2
*I *381:B I *D sky130_fd_sc_hd__or2_2
*CAP
1 gpio_defaults[8] 0.000446909
2 *211:DIODE 0
3 *210:DIODE 0
4 *384:B_N 6.88285e-06
5 *381:B 0.000200635
6 *12:25 0.000292371
7 *12:22 0.000560818
8 *12:8 0.000922874
9 *381:B *441:CLK_N 0.000117754
10 *384:B_N *390:A 5.94977e-06
11 *384:B_N *145:11 5.94977e-06
12 *12:8 *213:DIODE 1.78942e-05
13 *12:8 *395:A 3.23874e-05
14 *12:8 *13:7 0
15 *12:8 *76:33 6.97166e-05
16 *12:8 *139:44 0.000233042
17 *12:8 *145:11 0.00036128
18 *12:22 *387:A 0.000209407
19 *12:22 *389:B_N 4.35097e-05
20 *12:22 *443:RESET_B 2.52743e-05
21 *12:22 *145:11 2.92255e-05
22 *2:19 *381:B 9.4134e-05
23 *2:19 *12:22 2.48716e-05
24 *2:19 *12:25 4.08414e-05
25 *3:7 *12:22 7.26748e-05
26 *4:19 *381:B 8.29376e-05
27 *4:19 *12:25 2.29125e-05
28 *10:9 *12:8 0
29 *11:8 *12:8 0
30 *11:15 *12:8 3.77736e-05
*RES
1 gpio_defaults[8] *12:8 19.2254 
2 *12:8 *12:22 26.8806 
3 *12:22 *12:25 6.74725 
4 *12:25 *381:B 20.1489 
5 *12:25 *384:B_N 13.9481 
6 *12:22 *210:DIODE 9.24915 
7 *12:8 *211:DIODE 9.24915 
*END

*D_NET *13 0.00272137
*CONN
*P gpio_defaults[9] I
*I *212:DIODE I *D sky130_fd_sc_hd__diode_2
*I *389:B_N I *D sky130_fd_sc_hd__or2b_2
*I *386:B I *D sky130_fd_sc_hd__or2_2
*I *213:DIODE I *D sky130_fd_sc_hd__diode_2
*CAP
1 gpio_defaults[9] 0.000271245
2 *212:DIODE 2.57973e-05
3 *389:B_N 0.00019703
4 *386:B 0
5 *213:DIODE 0.000114698
6 *13:26 0.000261512
7 *13:9 0.000140993
8 *13:7 0.000336225
9 *212:DIODE *387:A 1.65872e-05
10 *212:DIODE *392:A 4.76794e-05
11 *212:DIODE *139:44 0.000109421
12 *389:B_N *443:RESET_B 4.57412e-05
13 *389:B_N *145:11 4.86422e-05
14 *13:26 *392:A 0.000317466
15 *13:26 *139:44 0.000317466
16 *2:8 *13:7 0
17 *3:7 *389:B_N 0.000174256
18 *3:7 *13:7 0
19 *11:15 *213:DIODE 8.74753e-05
20 *11:15 *13:7 0.000107643
21 *11:15 *13:9 4.00886e-05
22 *12:8 *213:DIODE 1.78942e-05
23 *12:8 *13:7 0
24 *12:22 *389:B_N 4.35097e-05
*RES
1 gpio_defaults[9] *13:7 7.66995 
2 *13:7 *13:9 1.00149 
3 *13:9 *213:DIODE 16.3045 
4 *13:9 *386:B 13.7491 
5 *13:7 *13:26 7.99641 
6 *13:26 *389:B_N 24.0724 
7 *13:26 *212:DIODE 10.5271 
*END

*D_NET *14 0.00391775
*CONN
*P mgmt_gpio_in O
*I *468:Z O *D sky130_fd_sc_hd__ebufn_2
*CAP
1 mgmt_gpio_in 0.00113873
2 *468:Z 0.00113873
3 mgmt_gpio_in one 4.31122e-05
4 mgmt_gpio_in zero 0.00127779
5 mgmt_gpio_in *202:DIODE 1.94615e-05
6 mgmt_gpio_in *364:A 0.000299932
7 mgmt_gpio_in *490:A 0
8 mgmt_gpio_in *15:8 0
*RES
1 *468:Z mgmt_gpio_in 33.8418 
*END

*D_NET *15 0.00947773
*CONN
*P mgmt_gpio_oeb I
*I *358:A I *D sky130_fd_sc_hd__nand2_2
*I *356:A2 I *D sky130_fd_sc_hd__a31o_2
*I *199:DIODE I *D sky130_fd_sc_hd__diode_2
*I *201:DIODE I *D sky130_fd_sc_hd__diode_2
*CAP
1 mgmt_gpio_oeb 0.00198133
2 *358:A 2.37921e-05
3 *356:A2 0
4 *199:DIODE 0.000168032
5 *201:DIODE 0.000211779
6 *15:30 0.000814872
7 *15:10 0.000944899
8 *15:8 0.0020914
9 *199:DIODE pad_gpio_outenb 2.58757e-05
10 *199:DIODE *356:A3 1.02356e-05
11 *199:DIODE *91:14 9.80242e-07
12 *201:DIODE *34:13 0.000298986
13 *15:8 one 3.84497e-05
14 *15:8 pad_gpio_ana_en 0
15 *15:8 *360:B1 0.000160732
16 *15:8 *364:A 0
17 *15:8 *451:RESET_B 0
18 *15:8 *468:A 0.000311432
19 *15:8 *490:A 0.000639329
20 *15:8 *507:A 0.000220828
21 *15:8 *49:10 0
22 *15:8 *91:14 2.81678e-06
23 *15:10 *360:B1 3.96412e-05
24 *15:10 *91:14 1.65292e-05
25 *15:10 *105:10 6.58409e-05
26 *15:30 pad_gpio_dm[0] 6.01721e-05
27 *15:30 pad_gpio_inenb 0.000260946
28 *15:30 *356:A1 1.97124e-05
29 *15:30 *356:A3 1.5562e-05
30 *15:30 *360:B1 5.0187e-05
31 *15:30 *361:A2 0.000284286
32 *15:30 *361:A3 5.9639e-05
33 *15:30 *445:RESET_B 1.5714e-05
34 *15:30 *463:D 8.08566e-05
35 *15:30 *508:A 0.000154145
36 *15:30 *27:12 0.000293026
37 *15:30 *91:14 4.22136e-05
38 *15:30 *103:9 3.95516e-05
39 *15:30 *105:10 3.39453e-05
40 mgmt_gpio_in *15:8 0
*RES
1 mgmt_gpio_oeb *15:8 29.2719 
2 *15:8 *15:10 2.24725 
3 *15:10 *201:DIODE 17.2456 
4 *15:10 *15:30 25.7248 
5 *15:30 *199:DIODE 11.6364 
6 *15:30 *356:A2 9.24915 
7 *15:8 *358:A 14.4819 
*END

*D_NET *16 0.00521952
*CONN
*P mgmt_gpio_out I
*I *359:A I *D sky130_fd_sc_hd__inv_2
*I *202:DIODE I *D sky130_fd_sc_hd__diode_2
*CAP
1 mgmt_gpio_out 0.000155649
2 *359:A 0
3 *202:DIODE 0.000304554
4 *16:31 2.68684e-05
5 *16:14 0.0013667
6 *16:10 0.00119093
7 *202:DIODE *364:A 7.26748e-05
8 *202:DIODE *448:D 1.41181e-05
9 *202:DIODE *490:A 9.49153e-05
10 *16:10 pad_gpio_ana_pol 6.39303e-05
11 *16:10 *19:5 1.51803e-05
12 *16:14 pad_gpio_ana_pol 0
13 *16:14 *19:5 0.00189454
14 mgmt_gpio_in *202:DIODE 1.94615e-05
*RES
1 mgmt_gpio_out *16:10 10.9332 
2 *16:10 *16:14 44.8385 
3 *16:14 *202:DIODE 23.9928 
4 *16:14 *359:A 9.24915 
5 mgmt_gpio_out *16:31 0.0631875 
*END

*D_NET *17 0.00618086
*CONN
*P one O
*I *364:A I *D sky130_fd_sc_hd__and2_2
*I *481:HI O *D sky130_fd_sc_hd__conb_1
*CAP
1 one 0.000962179
2 *364:A 0.00038794
3 *481:HI 0
4 *17:4 0.00135012
5 one *19:5 0.00258365
6 *364:A *364:B 0.000177539
7 *364:A *483:A 0.000265269
8 mgmt_gpio_in one 4.31122e-05
9 mgmt_gpio_in *364:A 0.000299932
10 *202:DIODE *364:A 7.26748e-05
11 *15:8 one 3.84497e-05
12 *15:8 *364:A 0
*RES
1 *481:HI *17:4 9.24915 
2 *17:4 *364:A 31.1971 
3 *17:4 one 41.6215 
*END

*D_NET *18 0.00521753
*CONN
*P pad_gpio_ana_en O
*I *449:Q O *D sky130_fd_sc_hd__dfbbn_2
*CAP
1 pad_gpio_ana_en 0.00250168