*SPEF "ieee 1481-1999"
*DESIGN "gpio_control_block"
*DATE "11:11:11 Fri 11 11, 1111"
*VENDOR "OpenRCX"
*PROGRAM "Parallel Extraction"
*VERSION "1.0"
*DESIGN_FLOW "NAME_SCOPE LOCAL" "PIN_CAP NONE"
*DIVIDER /
*DELIMITER :
*BUS_DELIMITER []
*T_UNIT 1 NS
*C_UNIT 1 PF
*R_UNIT 1 OHM
*L_UNIT 1 HENRY

*NAME_MAP
*1 gpio_defaults[0]
*2 gpio_defaults[10]
*3 gpio_defaults[11]
*4 gpio_defaults[12]
*5 gpio_defaults[1]
*6 gpio_defaults[2]
*7 gpio_defaults[3]
*8 gpio_defaults[4]
*9 gpio_defaults[5]
*10 gpio_defaults[6]
*11 gpio_defaults[7]
*12 gpio_defaults[8]
*13 gpio_defaults[9]
*14 mgmt_gpio_in
*15 mgmt_gpio_oeb
*16 mgmt_gpio_out
*17 one
*18 pad_gpio_ana_en
*19 pad_gpio_ana_pol
*20 pad_gpio_ana_sel
*21 pad_gpio_dm[0]
*22 pad_gpio_dm[1]
*23 pad_gpio_dm[2]
*24 pad_gpio_holdover
*25 pad_gpio_ib_mode_sel
*26 pad_gpio_in
*27 pad_gpio_inenb
*28 pad_gpio_out
*29 pad_gpio_outenb
*30 pad_gpio_slow_sel
*31 pad_gpio_vtrip_sel
*32 resetn
*33 resetn_out
*34 serial_clock
*35 serial_clock_out
*36 serial_data_in
*37 serial_data_out
*38 serial_load
*39 serial_load_out
*40 user_gpio_in
*41 user_gpio_oeb
*42 user_gpio_out
*47 zero
*48 _000_
*49 _001_
*50 _002_
*51 _003_
*52 _004_
*53 _005_
*54 _006_
*55 _007_
*56 _008_
*57 _009_
*58 _010_
*59 _011_
*60 _012_
*61 _013_
*62 _014_
*63 _015_
*64 _016_
*65 _017_
*66 _018_
*67 _019_
*68 _020_
*69 _021_
*70 _022_
*71 _023_
*72 _024_
*73 _025_
*74 _026_
*75 _027_
*76 _028_
*77 _029_
*78 _030_
*79 _031_
*80 _032_
*81 _033_
*82 _034_
*83 _035_
*84 _036_
*85 _037_
*86 _038_
*87 _039_
*88 _040_
*89 _041_
*90 _042_
*91 _043_
*92 _044_
*93 _045_
*94 _046_
*95 _047_
*96 _048_
*97 _049_
*98 _050_
*99 _051_
*100 _052_
*101 _053_
*102 _054_
*103 _055_
*104 _056_
*105 _057_
*106 _058_
*107 _059_
*108 _060_
*109 _061_
*110 _062_
*111 _063_
*112 _064_
*113 _065_
*114 _066_
*115 _067_
*116 _068_
*117 _069_
*118 _070_
*119 _071_
*120 _072_
*121 _073_
*122 _074_
*123 _075_
*124 _076_
*125 _077_
*126 _078_
*127 _079_
*128 _080_
*129 _081_
*130 _082_
*131 _083_
*132 _084_
*133 _085_
*134 _086_
*135 _087_
*136 _088_
*137 _089_
*138 _090_
*139 _091_
*140 _092_
*141 _093_
*142 _094_
*143 _095_
*144 _096_
*145 _097_
*146 _098_
*147 _099_
*148 _100_
*149 _101_
*150 clknet_0_serial_clock
*151 clknet_1_0_0_serial_clock
*152 clknet_1_1_0_serial_clock
*153 gpio_logic1
*154 gpio_outenb
*155 mgmt_ena
*156 net1
*157 net10
*158 net11
*159 net12
*160 net13
*161 net14
*162 net15
*163 net16
*164 net17
*165 net18
*166 net19
*167 net2
*168 net20
*169 net21
*170 net22
*171 net23
*172 net24
*173 net25
*174 net26
*175 net27
*176 net28
*177 net29
*178 net3
*179 net30
*180 net31
*181 net32
*182 net33
*183 net34
*184 net35
*185 net36
*186 net37
*187 net38
*188 net39
*189 net4
*190 net40
*191 net5
*192 net6
*193 net7
*194 net8
*195 net9
*196 serial_data_pre
*197 shift_register\[0\]
*198 shift_register\[10\]
*199 shift_register\[11\]
*200 shift_register\[1\]
*201 shift_register\[2\]
*202 shift_register\[3\]
*203 shift_register\[4\]
*204 shift_register\[5\]
*205 shift_register\[6\]
*206 shift_register\[7\]
*207 shift_register\[8\]
*208 shift_register\[9\]
*209 ANTENNA_0
*210 ANTENNA_1
*211 ANTENNA_10
*212 ANTENNA_11
*213 ANTENNA_12
*214 ANTENNA_13
*215 ANTENNA_14
*216 ANTENNA_15
*217 ANTENNA_16
*218 ANTENNA_17
*219 ANTENNA_18
*220 ANTENNA_19
*221 ANTENNA_2
*222 ANTENNA_20
*223 ANTENNA_21
*224 ANTENNA_3
*225 ANTENNA_4
*226 ANTENNA_5
*227 ANTENNA_6
*228 ANTENNA_7
*229 ANTENNA_8
*230 ANTENNA_9
*231 FILLER_0_26
*232 FILLER_0_75
*233 FILLER_0_85
*234 FILLER_10_13
*235 FILLER_10_20
*236 FILLER_10_29
*237 FILLER_10_37
*238 FILLER_10_68
*239 FILLER_11_12
*240 FILLER_11_19
*241 FILLER_11_46
*242 FILLER_11_57
*243 FILLER_11_78
*244 FILLER_11_92
*245 FILLER_12_15
*246 FILLER_12_3
*247 FILLER_12_41
*248 FILLER_12_72
*249 FILLER_13_10
*250 FILLER_13_3
*251 FILLER_13_49
*252 FILLER_13_57
*253 FILLER_13_65
*254 FILLER_13_92
*255 FILLER_14_15
*256 FILLER_14_29
*257 FILLER_14_3
*258 FILLER_15_3
*259 FILLER_15_39
*260 FILLER_15_81
*261 FILLER_15_9
*262 FILLER_16_13
*263 FILLER_16_18
*264 FILLER_16_3
*265 FILLER_16_7
*266 FILLER_16_85
*267 FILLER_1_26
*268 FILLER_1_67
*269 FILLER_1_77
*270 FILLER_1_86
*271 FILLER_1_93
*272 FILLER_2_93
*273 FILLER_3_26
*274 FILLER_3_92
*275 FILLER_4_61
*276 FILLER_5_26
*277 FILLER_5_53
*278 FILLER_5_80
*279 FILLER_5_93
*280 FILLER_6_46
*281 FILLER_6_78
*282 FILLER_7_92
*283 FILLER_8_10
*284 FILLER_8_20
*285 FILLER_8_3
*286 FILLER_8_33
*287 FILLER_8_45
*288 FILLER_9_14
*289 FILLER_9_3
*290 FILLER_9_63
*291 FILLER_9_8
*292 PHY_0
*293 PHY_1
*294 PHY_10
*295 PHY_11
*296 PHY_12
*297 PHY_13
*298 PHY_14
*299 PHY_15
*300 PHY_16
*301 PHY_17
*302 PHY_18
*303 PHY_19
*304 PHY_2
*305 PHY_20
*306 PHY_21
*307 PHY_22
*308 PHY_23
*309 PHY_24
*310 PHY_25
*311 PHY_26
*312 PHY_27
*313 PHY_28
*314 PHY_29
*315 PHY_3
*316 PHY_30
*317 PHY_31
*318 PHY_32
*319 PHY_33
*320 PHY_4
*321 PHY_5
*322 PHY_6
*323 PHY_7
*324 PHY_8
*325 PHY_9
*326 TAP_34
*327 TAP_35
*328 TAP_36
*329 TAP_37
*330 TAP_38
*331 TAP_39
*332 TAP_40
*333 TAP_41
*334 TAP_42
*335 TAP_43
*336 TAP_44
*337 TAP_45
*338 TAP_46
*339 TAP_47
*340 TAP_48
*341 TAP_49
*342 TAP_50
*343 TAP_51
*344 TAP_52
*345 TAP_53
*346 TAP_54
*347 TAP_55
*348 TAP_56
*349 TAP_57
*350 TAP_58
*351 _102_
*352 _103_
*353 _104_
*354 _105_
*355 _106_
*356 _107_
*357 _108_
*358 _109_
*359 _110_
*360 _111_
*361 _112_
*362 _113_
*363 _114_
*364 _115_
*365 _116_
*366 _117_
*367 _118_
*368 _119_
*369 _120_
*370 _121_
*371 _122_
*372 _123_
*373 _124_
*374 _125_
*375 _126_
*376 _127_
*377 _128_
*378 _129_
*379 _130_
*380 _131_
*381 _132_
*382 _133_
*383 _134_
*384 _135_
*385 _136_
*386 _137_
*387 _138_
*388 _139_
*389 _140_
*390 _141_
*391 _142_
*392 _143_
*393 _144_
*394 _145_
*395 _146_
*396 _147_
*397 _148_
*398 _149_
*399 _150_
*400 _151_
*401 _152_
*402 _153_
*403 _154_
*404 _155_
*405 _156_
*406 _157_
*407 _158_
*408 _159_
*409 _160_
*410 _161_
*411 _162_
*412 _163_
*413 _164_
*414 _165_
*415 _166_
*416 _167_
*417 _168_
*418 _169_
*419 _170_
*420 _171_
*421 _172_
*422 _173_
*423 _174_
*424 _175_
*425 _176_
*426 _177_
*427 _178_
*428 _179_
*429 _180_
*430 _181_
*431 _182_
*432 _183_
*433 _184_
*434 _185_
*435 _186_
*436 _187_
*437 _188_
*438 _189_
*439 _190_
*440 _191_
*441 _192_
*442 _193_
*443 _194_
*444 _195_
*445 _196_
*446 _197_
*447 _198_
*448 _199_
*449 _200_
*450 _201_
*451 _202_
*452 _203_
*453 _204_
*454 _205_
*455 _206_
*456 _207_
*457 _208_
*458 _209_
*459 _210_
*460 _211_
*461 _212_
*462 _213_
*463 _214_
*464 _215_
*465 _216_
*466 _217_
*467 _218_
*468 _219_
*469 _220_
*470 _221_
*471 _222_
*472 _223_
*473 clkbuf_0_serial_clock
*474 clkbuf_1_0_0_serial_clock
*475 clkbuf_1_1_0_serial_clock
*476 const_source
*477 gpio_in_buf
*478 gpio_logic_high
*479 input1
*480 input10
*481 input11
*482 input12
*483 input13
*484 input14
*485 input15
*486 input16
*487 input17
*488 input18
*489 input19
*490 input2
*491 input20
*492 input21
*493 input3
*494 input4
*495 input5
*496 input6
*497 input7
*498 input8
*499 input9
*500 output23
*501 output24
*502 output25
*503 output26
*504 output27
*505 output28
*506 output29
*507 output30
*508 output31
*509 output32
*510 output33
*511 output34
*512 output35
*513 output36
*514 output37
*515 output38
*516 output39
*517 output40

*PORTS
gpio_defaults[0] I
gpio_defaults[10] I
gpio_defaults[11] I
gpio_defaults[12] I
gpio_defaults[1] I
gpio_defaults[2] I
gpio_defaults[3] I
gpio_defaults[4] I
gpio_defaults[5] I
gpio_defaults[6] I
gpio_defaults[7] I
gpio_defaults[8] I
gpio_defaults[9] I
mgmt_gpio_in O
mgmt_gpio_oeb I
mgmt_gpio_out I
one O
pad_gpio_ana_en O
pad_gpio_ana_pol O
pad_gpio_ana_sel O
pad_gpio_dm[0] O
pad_gpio_dm[1] O
pad_gpio_dm[2] O
pad_gpio_holdover O
pad_gpio_ib_mode_sel O
pad_gpio_in I
pad_gpio_inenb O
pad_gpio_out O
pad_gpio_outenb O
pad_gpio_slow_sel O
pad_gpio_vtrip_sel O
resetn I
resetn_out O
serial_clock I
serial_clock_out O
serial_data_in I
serial_data_out O
serial_load I
serial_load_out O
user_gpio_in O
user_gpio_oeb I
user_gpio_out I
zero O

*D_NET *1 0.0239158
*CONN
*P gpio_defaults[0] I
*I *479:A I *D sky130_fd_sc_hd__clkbuf_1
*I *222:DIODE I *D sky130_fd_sc_hd__diode_2
*CAP
1 gpio_defaults[0] 2.68958e-05
2 *479:A 0
3 *222:DIODE 8.47792e-05
4 *1:30 0.00326718
5 *1:11 0.00513609
6 *1:10 0.00195369
7 *1:8 0.00130417
8 *1:7 0.00133106
9 *222:DIODE *156:21 2.22974e-05
10 *1:8 *6:5 0.00264612
11 *1:11 *23:9 1.19465e-05
12 *1:30 pad_gpio_ib_mode_sel 8.49477e-05
13 *1:30 pad_gpio_out 0.00198445
14 *1:30 *230:DIODE 0.000143175
15 *1:30 *461:D 0.00141246
16 *1:30 *497:A 0
17 *1:30 *26:20 0.000119563
18 *1:30 *53:28 0.00107297
19 *1:30 *117:23 0.00301634
20 *1:30 *156:21 0.000133822
21 *1:30 *163:42 2.06254e-05
22 *1:30 *194:13 0.000143175
*RES
1 gpio_defaults[0] *1:7 3.43197 
2 *1:7 *1:8 53.1156 
3 *1:8 *1:10 4.5 
4 *1:10 *1:11 53.9653 
5 *1:11 *1:30 30.8376 
6 *1:30 *222:DIODE 11.0817 
7 *1:30 *479:A 9.24915 
*END

*D_NET *2 0.0146285
*CONN
*P gpio_defaults[10] I
*I *209:DIODE I *D sky130_fd_sc_hd__diode_2
*I *490:A I *D sky130_fd_sc_hd__clkbuf_1
*CAP
1 gpio_defaults[10] 0.000391648
2 *209:DIODE 0
3 *490:A 1.31528e-05
4 *2:38 8.41741e-05
5 *2:37 0.000182756
6 *2:33 0.000713105
7 *2:26 0.00211996
8 *2:14 0.00161065
9 *2:13 0.00136668
10 *2:10 0.00166627
11 *490:A *493:A 6.17618e-05
12 *490:A *191:13 6.36477e-05
13 *2:10 zero 0.000407258
14 *2:10 *3:11 0.000836804
15 *2:10 *13:18 9.12047e-05
16 *2:13 pad_gpio_ana_en 0.00188588
17 *2:13 *3:20 0
18 *2:13 *16:15 0.000120517
19 *2:13 *17:26 0.000115903
20 *2:13 *20:12 0
21 *2:13 *119:16 0.000400393
22 *2:26 *361:A 2.29888e-05
23 *2:26 *455:RESET_B 5.8493e-05
24 *2:26 *455:SET_B 0.000257287
25 *2:26 *455:CLK_N 2.57986e-05
26 *2:26 *464:RESET_B 0.000181814
27 *2:26 *471:CLK 1.34153e-05
28 *2:26 *66:16 0.000132398
29 *2:26 *89:38 0.000233422
30 *2:26 *119:16 1.00091e-05
31 *2:26 *164:282 0.000137823
32 *2:26 *178:22 2.30231e-05
33 *2:26 *203:8 6.08467e-05
34 *2:33 *495:A 0.000236207
35 *2:33 *3:29 3.03953e-05
36 *2:33 *94:7 6.36477e-05
37 *2:33 *94:33 6.16595e-06
38 *2:33 *111:14 0.000704594
39 *2:33 *191:13 0.000135322
40 *2:33 *193:38 3.60933e-06
41 *2:37 *495:A 0.000159519
*RES
1 gpio_defaults[10] *2:10 23.9044 
2 *2:10 *2:13 43.2488 
3 *2:13 *2:14 127.479 
4 *2:14 *2:26 45.6675 
5 *2:26 *2:33 21.9858 
6 *2:33 *2:37 11.0817 
7 *2:37 *2:38 81.1229 
8 *2:38 *490:A 19.2217 
9 *2:33 *209:DIODE 9.24915 
*END

*D_NET *3 0.0133122
*CONN
*P gpio_defaults[11] I
*I *210:DIODE I *D sky130_fd_sc_hd__diode_2
*I *493:A I *D sky130_fd_sc_hd__clkbuf_1
*CAP
1 gpio_defaults[11] 0.000976001
2 *210:DIODE 0
3 *493:A 0.00012716
4 *3:29 0.000230689
5 *3:26 0.00017455
6 *3:25 0.000543471
7 *3:20 0.00246091
8 *3:14 0.00203742
9 *3:13 4.89522e-05
10 *3:11 0.000976001
11 *493:A *495:A 0.00045129
12 *493:A *191:13 0.000158335
13 *3:11 pad_gpio_ana_en 0
14 *3:11 pad_gpio_ana_pol 4.10997e-05
15 *3:11 *4:8 0.000109801
16 *3:11 *13:18 7.49735e-06
17 *3:11 *20:12 0.00176144
18 *3:20 *381:A 7.92757e-06
19 *3:20 *381:B_N 0.000297054
20 *3:20 *382:A 6.01985e-05
21 *3:20 *432:B_N 7.84564e-05
22 *3:20 *463:D 6.93171e-05
23 *3:20 *471:D 6.08467e-05
24 *3:20 *20:12 7.79287e-05
25 *3:20 *89:41 3.64497e-06
26 *3:20 *97:23 0.00025456
27 *3:20 *129:23 3.78939e-05
28 *3:20 *153:29 5.91586e-05
29 *3:20 *164:250 6.03492e-05
30 *3:20 *164:258 1.30449e-05
31 *3:20 *199:8 5.63639e-06
32 *3:25 *191:13 0.000691693
33 *3:29 *385:A 6.08494e-05
34 *3:29 *495:A 0.000157107
35 *3:29 *111:14 0.000158905
36 *3:29 *191:13 0.000124053
37 *490:A *493:A 6.17618e-05
38 *2:10 *3:11 0.000836804
39 *2:13 *3:20 0
40 *2:33 *3:29 3.03953e-05
*RES
1 gpio_defaults[11] *3:11 43.8367 
2 *3:11 *3:13 9.24915 
3 *3:13 *3:14 74.3058 
4 *3:14 *3:20 45.8379 
5 *3:20 *3:25 21.6824 
6 *3:25 *3:26 81.1229 
7 *3:26 *3:29 13.8548 
8 *3:29 *493:A 14.9881 
9 *3:29 *210:DIODE 9.24915 
*END

*D_NET *4 0.0125393
*CONN
*P gpio_defaults[12] I
*I *221:DIODE I *D sky130_fd_sc_hd__diode_2
*I *494:A I *D sky130_fd_sc_hd__clkbuf_1
*CAP
1 gpio_defaults[12] 0.00437392
2 *221:DIODE 0.000233201
3 *494:A 0.000273781
4 *4:8 0.0048809
5 *221:DIODE *12:20 8.19941e-05
6 *221:DIODE *71:18 8.6603e-05
7 *221:DIODE *191:13 0.000247443
8 *494:A *480:A 0.000157074
9 *494:A *16:15 2.24271e-05
10 *494:A *71:18 2.02035e-05
11 *494:A *92:10 1.12479e-05
12 *494:A *178:9 7.08444e-05
13 *494:A *189:18 9.25778e-05
14 *494:A *191:13 9.12416e-06
15 *4:8 one 0.000202758
16 *4:8 zero 3.84497e-05
17 *4:8 *369:B_N 6.85024e-06
18 *4:8 *400:A 4.91917e-06
19 *4:8 *402:B 0.000101079
20 *4:8 *7:15 0.000306985
21 *4:8 *10:14 8.64865e-06
22 *4:8 *12:20 0.000402153
23 *4:8 *13:18 0
24 *4:8 *15:15 0
25 *4:8 *71:18 0.000752657
26 *4:8 *153:29 1.66626e-05
27 *4:8 *158:14 2.6958e-05
28 *3:11 *4:8 0.000109801
*RES
1 gpio_defaults[12] *4:8 27.1845 
2 *4:8 *494:A 30.0173 
3 *4:8 *221:DIODE 18.523 
*END

*D_NET *5 0.0127856
*CONN
*P gpio_defaults[1] I
*I *495:A I *D sky130_fd_sc_hd__clkbuf_1
*I *224:DIODE I *D sky130_fd_sc_hd__diode_2
*CAP
1 gpio_defaults[1] 0.00347584
2 *495:A 0.000524748
3 *224:DIODE 4.51842e-05
4 *5:8 0.00404577
5 *224:DIODE *191:13 6.08467e-05
6 *495:A *463:CLK 8.42535e-06
7 *495:A *6:21 2.18821e-05
8 *495:A *71:18 0.00018982
9 *495:A *92:10 0.000287341
10 *495:A *93:23 8.08437e-05
11 *495:A *152:38 1.84334e-05
12 *495:A *189:18 1.21461e-06
13 *495:A *191:13 4.00046e-05
14 *5:8 *229:DIODE 1.33682e-05
15 *5:8 *397:A 5.85383e-05
16 *5:8 *451:D 0.000139506
17 *5:8 *452:SET_B 0
18 *5:8 *463:CLK 1.8234e-05
19 *5:8 *465:D 4.60899e-05
20 *5:8 *466:D 0
21 *5:8 *7:15 0.000787004
22 *5:8 *9:11 0.00155702
23 *5:8 *93:23 0.000105157
24 *5:8 *193:38 7.48876e-06
25 *5:8 *202:8 0.000146302
26 *5:8 *203:8 0.000102424
27 *493:A *495:A 0.00045129
28 *2:33 *495:A 0.000236207
29 *2:37 *495:A 0.000159519
30 *3:29 *495:A 0.000157107
*RES
1 gpio_defaults[1] *5:8 49.9032 
2 *5:8 *224:DIODE 14.4725 
3 *5:8 *495:A 39.7716 
*END

*D_NET *6 0.023975
*CONN
*P gpio_defaults[2] I
*I *496:A I *D sky130_fd_sc_hd__clkbuf_1
*I *225:DIODE I *D sky130_fd_sc_hd__diode_2
*CAP
1 gpio_defaults[2] 0.000935817
2 *496:A 0.000250196
3 *225:DIODE 0.000127207
4 *6:46 1.65112e-05
5 *6:21 0.00316968
6 *6:8 0.00460826
7 *6:7 0.00181598
8 *6:5 0.000919306
9 *225:DIODE *499:A 6.59781e-05
10 *225:DIODE *162:16 0.000300016
11 *496:A *226:DIODE 6.27782e-05
12 *496:A *419:A 0.000119385
13 *496:A *429:A 6.02829e-05
14 *496:A *92:10 5.94961e-05
15 *496:A *160:27 4.92053e-06
16 *496:A *192:17 0.000114594
17 *6:8 pad_gpio_ana_pol 0
18 *6:8 *11:16 0.00021944
19 *6:8 *34:13 0.000158371
20 *6:21 pad_gpio_dm[1] 1.5714e-05
21 *6:21 pad_gpio_holdover 0.00164599
22 *6:21 pad_gpio_ib_mode_sel 6.69491e-05
23 *6:21 *398:A 0.000611255
24 *6:21 *419:A 0.000800148
25 *6:21 *444:S 0.000540564
26 *6:21 *448:RESET_B 9.14685e-06
27 *6:21 *448:SET_B 1.74199e-05
28 *6:21 *11:23 0.00103476
29 *6:21 *21:9 0.000307158
30 *6:21 *34:20 0.000239007
31 *6:21 *66:16 0.000517968
32 *6:21 *92:10 2.09356e-05
33 *6:21 *97:23 0.000131528
34 *6:21 *112:13 0.000754073
35 *6:21 *159:17 7.35292e-05
36 *6:21 *161:23 0.00146533
37 *6:21 *162:16 4.73077e-05
38 *495:A *6:21 2.18821e-05
39 *1:8 *6:5 0.00264612
*RES
1 gpio_defaults[2] *6:5 45.6879 
2 *6:5 *6:7 4.5 
3 *6:7 *6:8 53.4107 
4 *6:8 *6:21 22.4963 
5 *6:21 *225:DIODE 17.8002 
6 *6:21 *496:A 21.1119 
7 gpio_defaults[2] *6:46 0.0631875 
*END

*D_NET *7 0.0154883
*CONN
*P gpio_defaults[3] I
*I *226:DIODE I *D sky130_fd_sc_hd__diode_2
*I *497:A I *D sky130_fd_sc_hd__clkbuf_1
*CAP
1 gpio_defaults[3] 0.00281075
2 *226:DIODE 0.000110728
3 *497:A 0.000435719
4 *7:27 0.00113074
5 *7:18 0.000804084
6 *7:17 0.000219793
7 *7:15 0.00281075
8 *226:DIODE *419:A 3.26503e-05
9 *497:A *427:A 0.000330557
10 *497:A *53:28 2.60879e-06
11 *497:A *54:17 1.91391e-05
12 *497:A *92:10 0.000156203
13 *497:A *160:27 3.44412e-06
14 *497:A *166:11 0.000256466
15 *497:A *193:16 4.87439e-05
16 *7:15 *8:7 0.00219509
17 *7:15 *92:35 1.91246e-05
18 *7:15 *153:29 5.04829e-06
19 *7:15 *158:14 0.00040722
20 *7:15 *194:23 0.000153864
21 *7:15 *195:33 3.13169e-05
22 *7:18 *157:16 3.96548e-05
23 *7:18 *178:10 0
24 *7:18 *178:16 1.55703e-05
25 *7:27 *230:DIODE 0.000124667
26 *7:27 *419:A 2.58757e-05
27 *7:27 *429:A 7.92757e-06
28 *7:27 *448:SET_B 1.91246e-05
29 *7:27 *480:A 0.000197736
30 *7:27 *481:A 8.65288e-05
31 *7:27 *485:A 0.000137071
32 *7:27 *92:10 0.000890602
33 *7:27 *157:15 8.90033e-06
34 *7:27 *194:13 0.000447312
35 *7:27 *195:15 0.000346525
36 *496:A *226:DIODE 6.27782e-05
37 *1:30 *497:A 0
38 *4:8 *7:15 0.000306985
39 *5:8 *7:15 0.000787004
*RES
1 gpio_defaults[3] *7:15 41.8327 
2 *7:15 *7:17 9.24915 
3 *7:17 *7:18 359.259 
4 *7:18 *7:27 41.4684 
5 *7:27 *497:A 31.1495 
6 *7:27 *226:DIODE 11.0817 
*END

*D_NET *8 0.0145903
*CONN
*P gpio_defaults[4] I
*I *498:A I *D sky130_fd_sc_hd__clkbuf_1
*I *227:DIODE I *D sky130_fd_sc_hd__diode_2
*CAP
1 gpio_defaults[4] 0.00219278
2 *498:A 0.000352361
3 *227:DIODE 4.51842e-05
4 *8:8 0.00168098
5 *8:7 0.00347621
6 *227:DIODE *499:A 6.08467e-05
7 *498:A *230:DIODE 5.04829e-06
8 *498:A *499:A 0.000815001
9 *498:A *112:20 0.000339454
10 *498:A *123:33 4.38803e-05
11 *498:A *137:18 0.000193492
12 *498:A *195:15 2.58616e-05
13 *8:7 *9:11 0.0024883
14 *8:7 *10:14 2.75706e-05
15 *8:8 *137:18 0.000593935
16 *8:8 *158:14 5.43679e-05
17 *7:15 *8:7 0.00219509
*RES
1 gpio_defaults[4] *8:7 14.1406 
2 *8:7 *8:8 38.5818 
3 *8:8 *227:DIODE 14.4725 
4 *8:8 *498:A 29.3464 
*END

*D_NET *9 0.0171365
*CONN
*P gpio_defaults[5] I
*I *228:DIODE I *D sky130_fd_sc_hd__diode_2
*I *499:A I *D sky130_fd_sc_hd__clkbuf_1
*CAP
1 gpio_defaults[5] 0.00241322
2 *228:DIODE 0
3 *499:A 0.00100432
4 *9:17 0.00133248
5 *9:11 0.00274137
6 *499:A *483:A 0.000325939
7 *499:A *112:20 8.70662e-06
8 *499:A *160:27 2.5433e-05
9 *499:A *162:16 7.28567e-06
10 *499:A *191:13 0.000203756
11 *9:11 *229:DIODE 3.23874e-05
12 *9:11 *451:CLK_N 6.84443e-05
13 *9:11 *463:CLK 5.71849e-05
14 *9:11 *464:CLK 0.000699986
15 *9:11 *480:A 2.41274e-06
16 *9:11 *10:14 0.00210544
17 *9:11 *151:20 0.000364508
18 *9:17 *393:A 0.000293672
19 *9:17 *451:CLK_N 0.000224377
20 *9:17 *454:RESET_B 2.32028e-05
21 *9:17 *483:A 0.000112361
22 *9:17 *152:38 3.88348e-05
23 *9:17 *193:16 6.40758e-05
24 *225:DIODE *499:A 6.59781e-05
25 *227:DIODE *499:A 6.08467e-05
26 *498:A *499:A 0.000815001
27 *5:8 *9:11 0.00155702
28 *8:7 *9:11 0.0024883
*RES
1 gpio_defaults[5] *9:11 47.592 
2 *9:11 *9:17 18.3388 
3 *9:17 *499:A 44.7215 
4 *9:17 *228:DIODE 9.24915 
*END

*D_NET *10 0.013554
*CONN
*P gpio_defaults[6] I
*I *229:DIODE I *D sky130_fd_sc_hd__diode_2
*I *480:A I *D sky130_fd_sc_hd__clkbuf_1
*CAP
1 gpio_defaults[6] 0.0035972
2 *229:DIODE 0.000276541
3 *480:A 0.000428432
4 *10:14 0.00430217
5 *229:DIODE *463:D 1.43698e-05
6 *229:DIODE *93:23 9.67837e-05
7 *229:DIODE *191:13 6.08467e-05
8 *229:DIODE *193:38 0.000126495
9 *229:DIODE *202:8 2.58757e-05
10 *480:A *157:15 0
11 *480:A *178:22 8.28297e-07
12 *480:A *194:13 0.000189301
13 *480:A *195:15 5.34182e-05
14 *10:14 *359:B 0
15 *10:14 *393:A 0.000453812
16 *10:14 *451:CLK_N 0.000326584
17 *10:14 *464:CLK 1.68911e-05
18 *10:14 *12:20 0.000851469
19 *10:14 *71:18 0.000118782
20 *10:14 *151:20 6.95527e-05
21 *494:A *480:A 0.000157074
22 *4:8 *10:14 8.64865e-06
23 *5:8 *229:DIODE 1.33682e-05
24 *7:27 *480:A 0.000197736
25 *8:7 *10:14 2.75706e-05
26 *9:11 *229:DIODE 3.23874e-05
27 *9:11 *480:A 2.41274e-06
28 *9:11 *10:14 0.00210544
*RES
1 gpio_defaults[6] *10:14 43.2949 
2 *10:14 *480:A 30.23 
3 *10:14 *229:DIODE 25.1315 
*END

*D_NET *11 0.0204043
*CONN
*P gpio_defaults[7] I
*I *230:DIODE I *D sky130_fd_sc_hd__diode_2
*I *481:A I *D sky130_fd_sc_hd__clkbuf_1
*CAP
1 gpio_defaults[7] 0.00109165
2 *230:DIODE 0.00047081
3 *481:A 0.000197161
4 *11:23 0.00403232
5 *11:16 0.00452776
6 *11:10 0.00225507
7 *230:DIODE *448:SET_B 2.18679e-05
8 *230:DIODE *485:A 0.000105116
9 *230:DIODE *53:28 9.29777e-05
10 *230:DIODE *92:10 0.000122708
11 *230:DIODE *194:13 0.000354699
12 *481:A *485:A 4.34034e-05
13 *481:A *194:13 0.000250029
14 *11:16 pad_gpio_dm[0] 1.64979e-05
15 *11:23 pad_gpio_ana_en 0
16 *11:23 pad_gpio_ana_pol 0.000169791
17 *11:23 pad_gpio_dm[1] 0.000214931
18 *11:23 pad_gpio_dm[2] 7.62796e-06
19 *11:23 pad_gpio_holdover 2.71414e-05
20 *11:23 *398:A 0.000165025
21 *11:23 *454:RESET_B 0.00354783
22 *11:23 *97:23 0.000991671
23 *11:23 *112:13 5.0192e-05
24 *11:23 *161:22 3.4371e-05
25 *498:A *230:DIODE 5.04829e-06
26 *1:30 *230:DIODE 0.000143175
27 *6:8 *11:16 0.00021944
28 *6:21 *11:23 0.00103476
29 *7:27 *230:DIODE 0.000124667
30 *7:27 *481:A 8.65288e-05
*RES
1 gpio_defaults[7] *11:10 38.2087 
2 *11:10 *11:16 42.6623 
3 *11:16 *11:23 13.7282 
4 *11:23 *481:A 20.137 
5 *11:23 *230:DIODE 27.6607 
*END

*D_NET *12 0.0173049
*CONN
*P gpio_defaults[8] I
*I *211:DIODE I *D sky130_fd_sc_hd__diode_2
*I *482:A I *D sky130_fd_sc_hd__clkbuf_1
*CAP
1 gpio_defaults[8] 0.00390157
2 *211:DIODE 3.91168e-05
3 *482:A 0
4 *12:30 0.000429301
5 *12:20 0.00429175
6 *211:DIODE *483:A 0.000263835
7 *211:DIODE *116:16 0.000114271
8 *211:DIODE *159:17 6.47496e-05
9 *12:20 *359:B 0.000515234
10 *12:20 *393:A 8.16019e-06
11 *12:20 *451:CLK_N 5.04829e-06
12 *12:20 *464:CLK 0.000490501
13 *12:20 *13:18 0.00412339
14 *12:20 *15:15 0
15 *12:20 *47:7 0.00062204
16 *12:20 *71:18 8.72221e-06
17 *12:20 *151:20 0.000226126
18 *12:20 *153:29 0.000247443
19 *12:20 *157:28 1.59634e-05
20 *12:20 *158:14 0.000165005
21 *12:20 *167:20 0.000225627
22 *12:20 *178:15 0
23 *12:20 *194:23 2.1109e-05
24 *12:20 *195:33 3.46522e-06
25 *12:30 *393:A 6.93171e-05
26 *12:30 *398:A 9.57583e-05
27 *12:30 *454:RESET_B 1.70073e-05
28 *12:30 *15:15 4.7903e-06
29 *12:30 *191:13 0
30 *12:30 *193:16 0
31 *221:DIODE *12:20 8.19941e-05
32 *4:8 *12:20 0.000402153
33 *10:14 *12:20 0.000851469
*RES
1 gpio_defaults[8] *12:20 49.7489 
2 *12:20 *12:30 13.3913 
3 *12:30 *482:A 9.24915 
4 *12:30 *211:DIODE 12.191 
*END

*D_NET *13 0.0169182
*CONN
*P gpio_defaults[9] I
*I *483:A I *D sky130_fd_sc_hd__clkbuf_1
*I *212:DIODE I *D sky130_fd_sc_hd__diode_2
*CAP
1 gpio_defaults[9] 0.00363595
2 *483:A 0.000184713
3 *212:DIODE 0
4 *13:20 0.000184713
5 *13:18 0.00363595
6 *483:A *116:16 6.05729e-05
7 *483:A *159:17 2.54243e-05
8 *483:A *160:27 4.17531e-06
9 *483:A *162:16 6.78364e-06
10 *13:18 *453:CLK_N 0.000133447
11 *13:18 *454:RESET_B 0.0011455
12 *13:18 *457:SET_B 2.29386e-05
13 *13:18 *458:D 6.04178e-05
14 *13:18 *93:23 1.21131e-05
15 *13:18 *94:33 0.000399413
16 *13:18 *103:11 0.00065446
17 *13:18 *111:14 2.27901e-06
18 *13:18 *152:17 7.34778e-05
19 *13:18 *152:38 0.000186432
20 *13:18 *153:29 0.000389292
21 *13:18 *161:22 0.000242636
22 *13:18 *164:65 4.62703e-05
23 *13:18 *179:8 0
24 *13:18 *206:10 0.000131565
25 *13:18 *206:24 0.000755415
26 *211:DIODE *483:A 0.000263835
27 *499:A *483:A 0.000325939
28 *2:10 *13:18 9.12047e-05
29 *3:11 *13:18 7.49735e-06
30 *4:8 *13:18 0
31 *9:17 *483:A 0.000112361
32 *12:20 *13:18 0.00412339
*RES
1 gpio_defaults[9] *13:18 46.4675 
2 *13:18 *13:20 4.5 
3 *13:20 *212:DIODE 9.24915 
4 *13:20 *483:A 16.676 
*END

*D_NET *14 0.0055304
*CONN
*P mgmt_gpio_in O
*I *446:Z O *D sky130_fd_sc_hd__ebufn_1
*CAP
1 mgmt_gpio_in 0.000532847
2 *446:Z 0.00113542
3 *14:10 0.00166827
4 mgmt_gpio_in one 0.0007402
5 mgmt_gpio_in *15:15 0.000551271
6 *14:10 pad_gpio_holdover 0
7 *14:10 pad_gpio_ib_mode_sel 4.25818e-05
8 *14:10 *23:9 0.000859809
*RES
1 *446:Z *14:10 47.8562 
2 *14:10 mgmt_gpio_in 2.66385 
*END

*D_NET *15 0.0120854
*CONN
*P mgmt_gpio_oeb I
*I *484:A I *D sky130_fd_sc_hd__clkbuf_1
*I *213:DIODE I *D sky130_fd_sc_hd__diode_2
*CAP
1 mgmt_gpio_oeb 0.00417699
2 *484:A 0.000132927
3 *213:DIODE 0
4 *15:15 0.00430992
5 *484:A *485:A 0.000125746
6 *15:15 one 7.91736e-05
7 *15:15 *369:B_N 0.000185637
8 *15:15 *400:A 9.63101e-05
9 *15:15 *402:B 8.53037e-06
10 *15:15 *451:CLK_N 6.08467e-05
11 *15:15 *485:A 1.34424e-05
12 *15:15 *16:15 0.0018947
13 *15:15 *71:18 3.99086e-06
14 *15:15 *92:35 0.000109923
15 *15:15 *153:29 5.31024e-05
16 *15:15 *167:20 4.81572e-05
17 *15:15 *195:33 0.000229935
18 mgmt_gpio_in *15:15 0.000551271
19 *4:8 *15:15 0
20 *12:20 *15:15 0
21 *12:30 *15:15 4.7903e-06
*RES
1 mgmt_gpio_oeb *15:15 33.1453 
2 *15:15 *213:DIODE 9.24915 
3 *15:15 *484:A 12.625 
*END

*D_NET *16 0.0133598
*CONN
*P mgmt_gpio_out I
*I *485:A I *D sky130_fd_sc_hd__clkbuf_1
*I *214:DIODE I *D sky130_fd_sc_hd__diode_2
*CAP
1 mgmt_gpio_out 0.00393674
2 *485:A 0.000200101
3 *214:DIODE 0
4 *16:15 0.00413684
5 *485:A *71:18 1.41976e-05
6 *16:15 pad_gpio_ana_en 0.000330413
7 *16:15 *71:18 1.58551e-05
8 *16:15 *92:10 0
9 *16:15 *137:18 5.38901e-05
10 *16:15 *167:20 0.00189378
11 *16:15 *178:9 7.08444e-05
12 *16:15 *189:18 6.43178e-05
13 *16:15 *191:13 0.000180398
14 *230:DIODE *485:A 0.000105116
15 *481:A *485:A 4.34034e-05
16 *484:A *485:A 0.000125746
17 *494:A *16:15 2.24271e-05
18 *2:13 *16:15 0.000120517
19 *7:27 *485:A 0.000137071
20 *15:15 *485:A 1.34424e-05
21 *15:15 *16:15 0.0018947
*RES
1 mgmt_gpio_out *16:15 28.6512 
2 *16:15 *214:DIODE 9.24915 
3 *16:15 *485:A 24.2875 
*END

*D_NET *17 0.00637784
*CONN
*P one O
*I *435:A I *D sky130_fd_sc_hd__and2_1
*I *215:DIODE I *D sky130_fd_sc_hd__diode_2
*I *216:DIODE I *D sky130_fd_sc_hd__diode_2
*I *476:HI O *D sky130_fd_sc_hd__conb_1
*CAP
1 one 0.00096213
2 *435:A 0
3 *215:DIODE 1.25637e-05
4 *216:DIODE 4.28882e-05
5 *476:HI 0
6 *17:26 0.000458492
7 *17:14 0.00193099
8 *17:4 0.000565824
9 one zero 6.67511e-05
10 *215:DIODE *119:16 6.46815e-05
11 *215:DIODE *171:13 2.58757e-05
12 *216:DIODE *128:15 6.27782e-05
13 *17:14 *433:A 3.98512e-05
14 *17:14 *47:7 6.87575e-06
15 *17:14 *128:15 0.000146858
16 *17:14 *164:192 0.000125076
17 *17:26 pad_gpio_ana_en 0.000154145
18 *17:26 *382:A 1.44054e-05
19 *17:26 *433:A 1.02448e-05
20 *17:26 *76:14 0.000138747
21 *17:26 *119:16 0.000209836
22 *17:26 *164:192 4.88625e-05
23 *17:26 *171:13 0.000151928
24 mgmt_gpio_in one 0.0007402
25 *2:13 *17:26 0.000115903
26 *4:8 one 0.000202758
27 *15:15 one 7.91736e-05
*RES
1 *476:HI *17:4 9.24915 
2 *17:4 *216:DIODE 9.97254 
3 *17:4 *17:14 16.956 
4 *17:14 one 7.02701 
5 *17:14 *17:26 18.486 
6 *17:26 *215:DIODE 9.97254 
7 *17:26 *435:A 9.24915 
*END

*D_NET *18 0.00409415
*CONN
*P pad_gpio_ana_en O
*I *500:X O *D sky130_fd_sc_hd__buf_2
*CAP
1 pad_gpio_ana_en 0.000812713
2 *500:X 0.000812713
3 pad_gpio_ana_en pad_gpio_ana_pol 9.82797e-05
4 pad_gpio_ana_en pad_gpio_dm[0] 0
5 pad_gpio_ana_en pad_gpio_dm[1] 0
6 *2:13 pad_gpio_ana_en 0.00188588
7 *3:11 pad_gpio_ana_en 0
8 *11:23 pad_gpio_ana_en 0
9 *16:15 pad_gpio_ana_en 0.000330413
10 *17:26 pad_gpio_ana_en 0.000154145
*RES
1 *500:X pad_gpio_ana_en 40.489 
*END

*D_NET *19 0.00308033
*CONN
*P pad_gpio_ana_pol O
*I *501:X O *D sky130_fd_sc_hd__buf_2
*CAP
1 pad_gpio_ana_pol 0.0012639
2 *501:X 0.0012639
3 pad_gpio_ana_pol pad_gpio_ana_sel 7.2593e-05
4 pad_gpio_ana_pol pad_gpio_dm[0] 7.50634e-05
5 pad_gpio_ana_pol *20:12 9.56919e-05
6 pad_gpio_ana_pol *34:13 0
7 pad_gpio_ana_pol *34:20 0
8 pad_gpio_ana_en pad_gpio_ana_pol 9.82797e-05
9 *3:11 pad_gpio_ana_pol 4.10997e-05
10 *6:8 pad_gpio_ana_pol 0
11 *11:23 pad_gpio_ana_pol 0.000169791
*RES
1 *501:X pad_gpio_ana_pol 49.0074 
*END

*D_NET *20 0.00520062
*CONN
*P pad_gpio_ana_sel O
*I *502:X O *D sky130_fd_sc_hd__buf_2
*CAP
1 pad_gpio_ana_sel 2.78873e-05
2 *502:X 0.00124508
3 *20:12 0.00127297
4 pad_gpio_ana_sel pad_gpio_dm[0] 3.84497e-05
5 *20:12 *76:14 0.000608581
6 pad_gpio_ana_pol pad_gpio_ana_sel 7.2593e-05
7 pad_gpio_ana_pol *20:12 9.56919e-05
8 *2:13 *20:12 0
9 *3:11 *20:12 0.00176144
10 *3:20 *20:12 7.79287e-05
*RES
1 *502:X *20:12 49.6866 
2 *20:12 pad_gpio_ana_sel 3.58495 
*END

*D_NET *21 0.00584683
*CONN
*P pad_gpio_dm[0] O
*I *503:X O *D sky130_fd_sc_hd__buf_2
*CAP
1 pad_gpio_dm[0] 0.000227811
2 *503:X 0.000432711
3 *21:9 0.000660521
4 pad_gpio_dm[0] pad_gpio_dm[1] 0.000309505
5 pad_gpio_dm[0] *34:13 5.56367e-05
6 *21:9 *22:13 0.00126398
7 *21:9 *34:13 0.00031187
8 *21:9 *34:20 0.00214763
9 pad_gpio_ana_en pad_gpio_dm[0] 0
10 pad_gpio_ana_pol pad_gpio_dm[0] 7.50634e-05
11 pad_gpio_ana_sel pad_gpio_dm[0] 3.84497e-05
12 *6:21 *21:9 0.000307158
13 *11:16 pad_gpio_dm[0] 1.64979e-05
*RES
1 *503:X *21:9 45.9644 
2 *21:9 pad_gpio_dm[0] 9.09957 
*END

*D_NET *22 0.00527459
*CONN
*P pad_gpio_dm[1] O
*I *504:X O *D sky130_fd_sc_hd__buf_2
*CAP
1 pad_gpio_dm[1] 0.00024029
2 *504:X 0.00103875
3 *22:13 0.00127904
4 pad_gpio_dm[1] pad_gpio_dm[2] 3.31632e-05
5 pad_gpio_dm[1] *34:13 1.45398e-05
6 *22:13 pad_gpio_holdover 0.000127226
7 *22:13 *445:A1 0.000269312
8 *22:13 *503:A 2.16355e-05
9 *22:13 *504:A 0.000203756
10 *22:13 *506:A 0.000109427
11 *22:13 *23:9 9.50523e-05
12 *22:13 *34:20 3.82658e-05
13 pad_gpio_ana_en pad_gpio_dm[1] 0
14 pad_gpio_dm[0] pad_gpio_dm[1] 0.000309505
15 *6:21 pad_gpio_dm[1] 1.5714e-05
16 *11:23 pad_gpio_dm[1] 0.000214931
17 *21:9 *22:13 0.00126398
*RES
1 *504:X *22:13 46.9622 
2 *22:13 pad_gpio_dm[1] 12.8456 
*END

*D_NET *23 0.00495933
*CONN
*P pad_gpio_dm[2] O
*I *505:X O *D sky130_fd_sc_hd__buf_2
*CAP
1 pad_gpio_dm[2] 0.000218372
2 *505:X 0.00121874
3 *23:9 0.00143712
4 pad_gpio_dm[2] pad_gpio_holdover 0.000107462
5 pad_gpio_dm[2] *34:13 0.000265084
6 *23:9 pad_gpio_ib_mode_sel 0.000155056
7 *23:9 *430:A 0.000159032
8 *23:9 *446:TE_B 7.52954e-05
9 *23:9 *505:A 1.65872e-05
10 *23:9 *162:23 0.000298979
11 pad_gpio_dm[1] pad_gpio_dm[2] 3.31632e-05
12 *1:11 *23:9 1.19465e-05
13 *11:23 pad_gpio_dm[2] 7.62796e-06
14 *14:10 *23:9 0.000859809
15 *22:13 *23:9 9.50523e-05
*RES
1 *505:X *23:9 46.4799 
2 *23:9 pad_gpio_dm[2] 12.8289 
*END

*D_NET *24 0.0065032
*CONN
*P pad_gpio_holdover O
*I *506:X O *D sky130_fd_sc_hd__buf_2
*CAP
1 pad_gpio_holdover 0.0015216
2 *506:X 0.0015216
3 pad_gpio_holdover pad_gpio_ib_mode_sel 0.000868359
4 pad_gpio_holdover *442:A0 0.000112532
5 pad_gpio_holdover *442:A1 9.94284e-06
6 pad_gpio_holdover *446:A 0.000398179
7 pad_gpio_holdover *510:A 0.000163168
8 pad_gpio_dm[2] pad_gpio_holdover 0.000107462
9 *6:21 pad_gpio_holdover 0.00164599
10 *11:23 pad_gpio_holdover 2.71414e-05
11 *14:10 pad_gpio_holdover 0
12 *22:13 pad_gpio_holdover 0.000127226
*RES
1 *506:X pad_gpio_holdover 40.8956 
*END

*D_NET *25 0.0065393
*CONN
*P pad_gpio_ib_mode_sel O
*I *507:X O *D sky130_fd_sc_hd__buf_2
*CAP
1 pad_gpio_ib_mode_sel 0.00228084
2 *507:X 0.00228084