*SPEF "ieee 1481-1999"
*DESIGN "gpio_control_block"
*DATE "11:11:11 Fri 11 11, 1111"
*VENDOR "OpenRCX"
*PROGRAM "Parallel Extraction"
*VERSION "1.0"
*DESIGN_FLOW "NAME_SCOPE LOCAL" "PIN_CAP NONE"
*DIVIDER /
*DELIMITER :
*BUS_DELIMITER []
*T_UNIT 1 NS
*C_UNIT 1 PF
*R_UNIT 1 OHM
*L_UNIT 1 HENRY

*NAME_MAP
*1 gpio_defaults[0]
*2 gpio_defaults[10]
*3 gpio_defaults[11]
*4 gpio_defaults[12]
*5 gpio_defaults[1]
*6 gpio_defaults[2]
*7 gpio_defaults[3]
*8 gpio_defaults[4]
*9 gpio_defaults[5]
*10 gpio_defaults[6]
*11 gpio_defaults[7]
*12 gpio_defaults[8]
*13 gpio_defaults[9]
*14 mgmt_gpio_in
*15 mgmt_gpio_oeb
*16 mgmt_gpio_out
*17 one
*18 pad_gpio_ana_en
*19 pad_gpio_ana_pol
*20 pad_gpio_ana_sel
*21 pad_gpio_dm[0]
*22 pad_gpio_dm[1]
*23 pad_gpio_dm[2]
*24 pad_gpio_holdover
*25 pad_gpio_ib_mode_sel
*26 pad_gpio_in
*27 pad_gpio_inenb
*28 pad_gpio_out
*29 pad_gpio_outenb
*30 pad_gpio_slow_sel
*31 pad_gpio_vtrip_sel
*32 resetn
*33 resetn_out
*34 serial_clock
*35 serial_clock_out
*36 serial_data_in
*37 serial_data_out
*38 serial_load
*39 serial_load_out
*40 user_gpio_in
*41 user_gpio_oeb
*42 user_gpio_out
*47 zero
*48 _000_
*49 _001_
*50 _002_
*51 _003_
*52 _004_
*53 _005_
*54 _006_
*55 _007_
*56 _008_
*57 _009_
*58 _010_
*59 _011_
*60 _012_
*61 _013_
*62 _014_
*63 _015_
*64 _016_
*65 _017_
*66 _018_
*67 _019_
*68 _020_
*69 _021_
*70 _022_
*71 _023_
*72 _024_
*73 _025_
*74 _026_
*75 _041_
*76 _042_
*77 _043_
*78 _044_
*79 _045_
*80 _046_
*81 _047_
*82 _048_
*83 _049_
*84 _050_
*85 _051_
*86 _052_
*87 _053_
*88 _054_
*89 _055_
*90 _056_
*91 _057_
*92 clknet_0_serial_clock
*93 clknet_0_serial_load
*94 clknet_1_0__leaf_serial_load
*95 clknet_1_1__leaf_serial_clock
*96 gpio_logic1
*97 gpio_outenb
*98 mgmt_ena
*99 net1
*100 net10
*101 net11
*102 net12
*103 net13
*104 net14
*105 net15
*106 net16
*107 net17
*108 net18
*109 net19
*110 net2
*111 net20
*112 net21
*113 net22
*114 net23
*115 net24
*116 net25
*117 net26
*118 net27
*119 net28
*120 net29
*121 net3
*122 net30
*123 net31
*124 net32
*125 net33
*126 net34
*127 net35
*128 net36
*129 net37
*130 net38
*131 net39
*132 net4
*133 net40
*134 net41
*135 net42
*136 net43
*137 net44
*138 net45
*139 net46
*140 net47
*141 net48
*142 net49
*143 net5
*144 net50
*145 net51
*146 net52
*147 net53
*148 net54
*149 net55
*150 net56
*151 net57
*152 net6
*153 net7
*154 net8
*155 net9
*156 one_buffered
*157 serial_clock_out_buffered
*158 serial_load_out_buffered
*159 shift_register\[0\]
*160 shift_register\[10\]
*161 shift_register\[11\]
*162 shift_register\[12\]
*163 shift_register\[1\]
*164 shift_register\[2\]
*165 shift_register\[3\]
*166 shift_register\[4\]
*167 shift_register\[5\]
*168 shift_register\[6\]
*169 shift_register\[7\]
*170 shift_register\[8\]
*171 shift_register\[9\]
*172 zero_buffered
*173 ANTENNA__058__1_A
*174 ANTENNA__061__A0
*175 ANTENNA__062__B
*176 ANTENNA__068__B
*177 ANTENNA__069__B
*178 ANTENNA__070__B
*179 ANTENNA__071__B
*180 ANTENNA__072__B
*181 ANTENNA__073__B
*182 ANTENNA__074__B
*183 ANTENNA__075__B
*184 ANTENNA__076__B
*185 ANTENNA__077__B
*186 ANTENNA__078__B
*187 ANTENNA__079__B
*188 ANTENNA__080__B
*189 ANTENNA__081__B
*190 ANTENNA__082__A
*191 ANTENNA__082__B
*192 ANTENNA__083__B
*193 ANTENNA__084__B
*194 ANTENNA__085__B
*195 ANTENNA__086__B
*196 ANTENNA__087__B
*197 ANTENNA__088__B
*198 ANTENNA__089__B
*199 ANTENNA__090__B
*200 ANTENNA__091__B
*201 ANTENNA__092__B
*202 ANTENNA__093__B
*203 ANTENNA__094__2_A
*204 ANTENNA__097__5_A
*205 ANTENNA__098__6_A
*206 ANTENNA__099__7_A
*207 ANTENNA__101__9_A
*208 ANTENNA__102__10_A
*209 ANTENNA__132__RESET_B
*210 ANTENNA__134__A
*211 ANTENNA_clkbuf_0_serial_clock_A
*212 ANTENNA_clkbuf_0_serial_load_A
*213 ANTENNA_fanout27_A
*214 ANTENNA_fanout28_A
*215 ANTENNA_input1_A
*216 ANTENNA_input2_A
*217 ANTENNA_input3_A
*218 ANTENNA_input4_A
*219 ANTENNA_input5_A
*220 ANTENNA_serial_load_out_buffer_A
*221 FILLER_0_27
*222 FILLER_0_33
*223 FILLER_0_57
*224 FILLER_10_83
*225 FILLER_15_50
*226 FILLER_17_57
*227 FILLER_17_99
*228 FILLER_1_30
*229 FILLER_1_34
*230 FILLER_2_32
*231 FILLER_2_41
*232 FILLER_2_49
*233 FILLER_3_43
*234 FILLER_3_52
*235 FILLER_3_84
*236 FILLER_5_26
*237 FILLER_5_34
*238 FILLER_5_80
*239 FILLER_7_26
*240 FILLER_8_65
*241 FILLER_8_99
*242 FILLER_9_99
*243 PHY_0
*244 PHY_1
*245 PHY_10
*246 PHY_11
*247 PHY_12
*248 PHY_13
*249 PHY_14
*250 PHY_15
*251 PHY_16
*252 PHY_17
*253 PHY_18
*254 PHY_19
*255 PHY_2
*256 PHY_20
*257 PHY_21
*258 PHY_22
*259 PHY_23
*260 PHY_24
*261 PHY_25
*262 PHY_26
*263 PHY_27
*264 PHY_28
*265 PHY_29
*266 PHY_3
*267 PHY_30
*268 PHY_31
*269 PHY_32
*270 PHY_33
*271 PHY_34
*272 PHY_35
*273 PHY_36
*274 PHY_37
*275 PHY_38
*276 PHY_39
*277 PHY_4
*278 PHY_40
*279 PHY_41
*280 PHY_5
*281 PHY_6
*282 PHY_7
*283 PHY_8
*284 PHY_9
*285 TAP_42
*286 TAP_43
*287 TAP_44
*288 TAP_45
*289 TAP_46
*290 TAP_47
*291 TAP_48
*292 TAP_49
*293 TAP_50
*294 TAP_51
*295 TAP_52
*296 TAP_53
*297 TAP_54
*298 TAP_55
*299 TAP_56
*300 TAP_57
*301 TAP_58
*302 TAP_59
*303 TAP_60
*304 TAP_61
*305 TAP_62
*306 TAP_63
*307 TAP_64
*308 TAP_65
*309 TAP_66
*310 TAP_67
*311 TAP_68
*312 TAP_69
*313 TAP_70
*314 TAP_71
*315 TAP_72
*316 TAP_73
*317 _058__1
*318 _059__14
*319 _060_
*320 _061_
*321 _062_
*322 _063_
*323 _064_
*324 _065_
*325 _066_
*326 _067_
*327 _068_
*328 _069_
*329 _070_
*330 _071_
*331 _072_
*332 _073_
*333 _074_
*334 _075_
*335 _076_
*336 _077_
*337 _078_
*338 _079_
*339 _080_
*340 _081_
*341 _082_
*342 _083_
*343 _084_
*344 _085_
*345 _086_
*346 _087_
*347 _088_
*348 _089_
*349 _090_
*350 _091_
*351 _092_
*352 _093_
*353 _094__2
*354 _095__3
*355 _096__4
*356 _097__5
*357 _098__6
*358 _099__7
*359 _100__8
*360 _101__9
*361 _102__10
*362 _103__11
*363 _104__12
*364 _105__13
*365 _106_
*366 _107_
*367 _108_
*368 _109_
*369 _110_
*370 _111_
*371 _112_
*372 _113_
*373 _114_
*374 _115_
*375 _116_
*376 _117_
*377 _118_
*378 _119_
*379 _120_
*380 _121_
*381 _122_
*382 _123_
*383 _124_
*384 _125_
*385 _126_
*386 _127_
*387 _128_
*388 _129_
*389 _130_
*390 _131_
*391 _132_
*392 _133_
*393 _134_
*394 clkbuf_0_serial_clock
*395 clkbuf_0_serial_load
*396 clkbuf_1_0__f_serial_clock
*397 clkbuf_1_0__f_serial_load
*398 clkbuf_1_1__f_serial_clock
*399 clkbuf_1_1__f_serial_load
*400 const_source
*401 fanout23
*402 fanout24
*403 fanout25
*404 fanout26
*405 fanout27
*406 fanout28
*407 fanout29
*408 fanout30
*409 gpio_logic_high
*410 hold1
*411 hold10
*412 hold11
*413 hold12
*414 hold13
*415 hold2
*416 hold3
*417 hold4
*418 hold5
*419 hold6
*420 hold7
*421 hold8
*422 hold9
*423 input1
*424 input2
*425 input3
*426 input4
*427 input5
*428 one_buffer
*429 output10
*430 output11
*431 output12
*432 output13
*433 output14
*434 output15
*435 output16
*436 output17
*437 output18
*438 output19
*439 output20
*440 output21
*441 output22
*442 output6
*443 output7
*444 output8
*445 output9
*446 serial_clock_out_buffer
*447 serial_load_out_buffer
*448 zero_buffer

*PORTS
gpio_defaults[0] I
gpio_defaults[10] I
gpio_defaults[11] I
gpio_defaults[12] I
gpio_defaults[1] I
gpio_defaults[2] I
gpio_defaults[3] I
gpio_defaults[4] I
gpio_defaults[5] I
gpio_defaults[6] I
gpio_defaults[7] I
gpio_defaults[8] I
gpio_defaults[9] I
mgmt_gpio_in O
mgmt_gpio_oeb I
mgmt_gpio_out I
one O
pad_gpio_ana_en O
pad_gpio_ana_pol O
pad_gpio_ana_sel O
pad_gpio_dm[0] O
pad_gpio_dm[1] O
pad_gpio_dm[2] O
pad_gpio_holdover O
pad_gpio_ib_mode_sel O
pad_gpio_in I
pad_gpio_inenb O
pad_gpio_out O
pad_gpio_outenb O
pad_gpio_slow_sel O
pad_gpio_vtrip_sel O
resetn I
resetn_out O
serial_clock I
serial_clock_out O
serial_data_in I
serial_data_out O
serial_load I
serial_load_out O
user_gpio_in O
user_gpio_oeb I
user_gpio_out I
zero O

*D_NET *1 0.0215743
*CONN
*P gpio_defaults[0] I
*I *327:B I *D sky130_fd_sc_hd__or2_0
*I *328:B I *D sky130_fd_sc_hd__nand2b_2
*I *177:DIODE I *D sky130_fd_sc_hd__diode_2
*I *176:DIODE I *D sky130_fd_sc_hd__diode_2
*CAP
1 gpio_defaults[0] 0.00142091
2 *327:B 1.47608e-05
3 *328:B 0.000976958
4 *177:DIODE 0.000424968
5 *176:DIODE 0
6 *1:40 0.00261324
7 *1:15 0.00337007
8 *1:13 0.00164051
9 *177:DIODE one 0.000202055
10 *177:DIODE *428:A 0.00060157
11 *177:DIODE *3:44 0.00131563
12 *177:DIODE *123:10 0.000135811
13 *177:DIODE *132:21 4.45999e-05
14 *177:DIODE *153:10 0.000282478
15 *327:B *113:25 6.08467e-05
16 *327:B *131:8 6.08467e-05
17 *328:B serial_data_out 0.00151519
18 *328:B *328:A_N 0.0014907
19 *328:B *344:B 4.69495e-06
20 *328:B *365:SET_B 0.000600827
21 *328:B *133:15 1.91391e-05
22 *1:13 *3:7 0.000168218
23 *1:13 *4:23 0.000114636
24 *1:13 *5:5 1.78548e-05
25 *1:13 *6:7 1.83764e-06
26 *1:13 *7:13 0.00020785
27 *1:15 *3:7 0.000382577
28 *1:15 *4:23 0.000385722
29 *1:40 *184:DIODE 6.10536e-05
30 *1:40 *386:D 0.000108915
31 *1:40 *3:7 0.000311524
32 *1:40 *4:23 0.000392818
33 *1:40 *7:47 5.60804e-05
34 *1:40 *11:13 6.74182e-05
35 *1:40 *61:11 0.000192512
36 *1:40 *105:13 0.000153427
37 *1:40 *115:42 0.000291851
38 *1:40 *120:41 0.000425444
39 *1:40 *120:46 0.00049606
40 *1:40 *120:48 5.03545e-06
41 *1:40 *123:10 0.000581273
42 *1:40 *132:21 2.16355e-05
43 *1:40 *149:8 0.00033476
*RES
1 gpio_defaults[0] *1:13 35.3214 
2 *1:13 *1:15 5.74107 
3 *1:15 *1:40 49.372 
4 *1:40 *176:DIODE 9.3 
5 *1:40 *177:DIODE 34.425 
6 *1:15 *328:B 29.5688 
7 *1:13 *327:B 14.3357 
*END

*D_NET *2 0.0160318
*CONN
*P gpio_defaults[10] I
*I *191:DIODE I *D sky130_fd_sc_hd__diode_2
*I *192:DIODE I *D sky130_fd_sc_hd__diode_2
*I *341:B I *D sky130_fd_sc_hd__or2_0
*I *342:B I *D sky130_fd_sc_hd__nand2b_2
*CAP
1 gpio_defaults[10] 0.00217594
2 *191:DIODE 0.000324607
3 *192:DIODE 4.51842e-05
4 *341:B 2.12792e-05
5 *342:B 0.000113633
6 *2:51 0.00096042
7 *2:37 0.00123916
8 *2:19 0.00291682
9 *191:DIODE mgmt_gpio_in 0.00016195
10 *191:DIODE *175:DIODE 0.000399866
11 *191:DIODE *424:A 9.05084e-06
12 *191:DIODE *431:A 0.000133612
13 *191:DIODE *110:10 0.000110849
14 *192:DIODE *132:21 6.08467e-05
15 *342:B *372:SET_B 2.57847e-05
16 *342:B *430:A 0.000131349
17 *342:B *435:A 0.000107496
18 *342:B *67:10 0.0001251
19 *2:19 serial_data_out 7.32094e-05
20 *2:19 *371:SET_B 0.00011164
21 *2:19 *374:RESET_B 1.30557e-05
22 *2:19 *374:SET_B 0.000372047
23 *2:19 *388:CLK 0.000497389
24 *2:19 *417:A 0.000156946
25 *2:19 *430:A 6.88248e-05
26 *2:19 *3:7 0.000219458
27 *2:19 *4:23 0
28 *2:19 *13:11 0
29 *2:19 *13:40 0.00101725
30 *2:19 *34:7 5.20873e-05
31 *2:19 *61:11 3.52697e-05
32 *2:19 *67:10 0.000212073
33 *2:19 *95:26 0.000154145
34 *2:19 *101:12 0.000663196
35 *2:19 *123:10 0.000320234
36 *2:19 *133:15 0.000360851
37 *2:37 serial_clock_out 5.00953e-05
38 *2:37 *175:DIODE 0.000221994
39 *2:37 *320:A1 2.38618e-05
40 *2:37 *322:B 1.58551e-05
41 *2:37 *322:C 0.000270768
42 *2:37 *341:A 3.82228e-05
43 *2:37 *431:A 0.000341502
44 *2:51 pad_gpio_dm[0] 0.000389985
45 *2:51 *217:DIODE 7.88662e-05
46 *2:51 *341:A 4.47179e-05
47 *2:51 *13:50 0.000937198
48 *2:51 *26:8 1.03403e-05
49 *2:51 *110:10 0.000203552
50 *2:51 *132:21 1.41976e-05
*RES
1 gpio_defaults[10] *2:19 48.7605 
2 *2:19 *342:B 16.6929 
3 *2:19 *2:37 23.7679 
4 *2:37 *341:B 9.72857 
5 *2:37 *2:51 24.2857 
6 *2:51 *192:DIODE 9.83571 
7 *2:51 *191:DIODE 26.1571 
*END

*D_NET *3 0.0260206
*CONN
*P gpio_defaults[11] I
*I *344:B I *D sky130_fd_sc_hd__nand2b_2
*I *343:B I *D sky130_fd_sc_hd__or2_0
*I *194:DIODE I *D sky130_fd_sc_hd__diode_2
*I *193:DIODE I *D sky130_fd_sc_hd__diode_2
*CAP
1 gpio_defaults[11] 0.000547711
2 *344:B 0.00205918
3 *343:B 5.31718e-05
4 *194:DIODE 0
5 *193:DIODE 0.000233519
6 *3:44 0.0013054
7 *3:23 0.00280139
8 *3:17 0.00303687
9 *3:7 0.00432811
10 *193:DIODE *178:DIODE 6.64392e-05
11 *193:DIODE *127:11 6.93171e-05
12 *193:DIODE *158:77 1.88152e-05
13 *343:B *330:B 0.000304838
14 *343:B *343:A 0.000304838
15 *344:B *373:RESET_B 3.23163e-05
16 *344:B *373:SET_B 0.000519112
17 *344:B *374:RESET_B 0.000578706
18 *344:B *390:CLK 0.000107496
19 *344:B *390:D 0.000159016
20 *344:B *401:A 8.67224e-05
21 *344:B *13:40 0.000234172
22 *344:B *101:12 0.0001729
23 *344:B *119:70 1.82679e-05
24 *344:B *133:15 6.30102e-05
25 *344:B *163:13 9.45664e-06
26 *3:7 *4:23 0
27 *3:7 *123:10 0.0003728
28 *3:17 pad_gpio_vtrip_sel 2.35815e-05
29 *3:17 *343:A 0.000119766
30 *3:17 *366:SET_B 0.000240318
31 *3:17 *369:SET_B 3.6099e-05
32 *3:17 *401:A 5.34459e-05
33 *3:17 *10:26 0.000339055
34 *3:17 *34:7 4.78554e-06
35 *3:17 *51:14 0
36 *3:17 *61:11 0.000265092
37 *3:17 *65:21 0.000296313
38 *3:17 *105:13 0.000191136
39 *3:17 *114:8 3.99086e-06
40 *3:17 *116:31 3.14126e-05
41 *3:17 *122:54 3.61045e-05
42 *3:23 *116:31 0.000476933
43 *3:23 *122:54 0.000132349
44 *3:23 *127:11 0.00144786
45 *3:23 *151:10 0.000181868
46 *3:44 one 0.000207192
47 *3:44 *184:DIODE 0.00020969
48 *3:44 *187:DIODE 1.36606e-05
49 *3:44 *215:DIODE 8.76081e-05
50 *3:44 *428:A 4.53226e-05
51 *3:44 *13:50 6.36477e-05
52 *3:44 *120:70 0.0014559
53 *3:44 *120:79 0.000171783
54 *177:DIODE *3:44 0.00131563
55 *328:B *344:B 4.69495e-06
56 *1:13 *3:7 0.000168218
57 *1:15 *3:7 0.000382577
58 *1:40 *3:7 0.000311524
59 *2:19 *3:7 0.000219458
*RES
1 gpio_defaults[11] *3:7 17.7679 
2 *3:7 *3:17 20.3734 
3 *3:17 *3:23 33.375 
4 *3:23 *193:DIODE 17.3 
5 *3:23 *3:44 44.2679 
6 *3:44 *194:DIODE 9.3 
7 *3:17 *343:B 16.3893 
8 *3:7 *344:B 47.1929 
*END

*D_NET *4 0.0154003
*CONN
*P gpio_defaults[12] I
*I *346:B I *D sky130_fd_sc_hd__nand2b_2
*I *345:B I *D sky130_fd_sc_hd__or2_0
*I *195:DIODE I *D sky130_fd_sc_hd__diode_2
*I *196:DIODE I *D sky130_fd_sc_hd__diode_2
*CAP
1 gpio_defaults[12] 0.00150345
2 *346:B 0.000164909
3 *345:B 0
4 *195:DIODE 0.000296229
5 *196:DIODE 0.000354646
6 *4:42 0.000962921
7 *4:29 0.00121557
8 *4:25 0.000693506
9 *4:23 0.00183782
10 *195:DIODE pad_gpio_dm[0] 6.08467e-05
11 *195:DIODE *215:DIODE 5.47126e-05
12 *195:DIODE *345:A 6.08467e-05
13 *195:DIODE *428:A 6.50921e-05
14 *195:DIODE *15:8 1.87825e-05
15 *195:DIODE *99:10 0.000257169
16 *195:DIODE *118:13 0.000266366
17 *195:DIODE *120:90 2.2766e-06
18 *196:DIODE *349:B 0.000403253
19 *196:DIODE *434:A 6.27782e-05
20 *196:DIODE *10:41 0.000107496
21 *196:DIODE *11:32 0.000408102
22 *346:B *446:A 0.000308138
23 *4:23 *331:A 8.51781e-05
24 *4:23 *332:B 0.000290088
25 *4:23 *367:RESET_B 0.000296893
26 *4:23 *367:SET_B 0.0001807
27 *4:23 *379:D 0.000106543
28 *4:23 *398:A 1.4091e-06
29 *4:23 *410:A 0.000287862
30 *4:23 *434:A 6.10871e-05
31 *4:23 *11:13 7.09666e-06
32 *4:23 *12:28 0.000268917
33 *4:23 *103:8 3.20412e-05
34 *4:23 *118:32 0.00033329
35 *4:23 *118:55 0.000104943
36 *4:23 *118:62 0.000153119
37 *4:23 *120:30 6.33443e-05
38 *4:23 *142:8 0.000200228
39 *4:25 *372:D 0.000173147
40 *4:25 *422:A 0.000168319
41 *4:25 *434:A 0.000794411
42 *4:25 *119:18 8.36586e-06
43 *4:29 *434:A 0.000468241
44 *4:29 *119:18 0.000464749
45 *4:42 pad_gpio_dm[0] 4.85806e-05
46 *4:42 *326:B 0
47 *4:42 *345:A 6.08467e-05
48 *4:42 *430:A 6.749e-05
49 *4:42 *434:A 0.000445868
50 *4:42 *118:13 0.000229491
51 *1:13 *4:23 0.000114636
52 *1:15 *4:23 0.000385722
53 *1:40 *4:23 0.000392818
54 *2:19 *4:23 0
55 *3:7 *4:23 0
*RES
1 gpio_defaults[12] *4:23 42.1518 
2 *4:23 *4:25 10.5982 
3 *4:25 *4:29 11 
4 *4:29 *196:DIODE 17.2286 
5 *4:29 *4:42 21.4464 
6 *4:42 *195:DIODE 25.3357 
7 *4:42 *345:B 9.3 
8 *4:25 *346:B 17.2286 
*END

*D_NET *5 0.0155084
*CONN
*P gpio_defaults[1] I
*I *340:B I *D sky130_fd_sc_hd__nand2b_2
*I *339:B I *D sky130_fd_sc_hd__or2_0
*I *188:DIODE I *D sky130_fd_sc_hd__diode_2
*I *189:DIODE I *D sky130_fd_sc_hd__diode_2
*CAP
1 gpio_defaults[1] 0.000221732
2 *340:B 0.00125112
3 *339:B 2.1308e-05
4 *188:DIODE 0.000374645
5 *189:DIODE 0.000100215
6 *5:29 0.00046304
7 *5:26 0.00189501
8 *5:19 0.00420544
9 *5:5 0.00144835
10 *188:DIODE pad_gpio_ana_sel 1.01116e-05
11 *188:DIODE *197:DIODE 0.000121789
12 *188:DIODE *208:DIODE 8.46261e-05
13 *188:DIODE *376:SET_B 0.000173175
14 *188:DIODE *36:41 5.04829e-06
15 *188:DIODE *39:7 2.99287e-05
16 *188:DIODE *132:21 1.43698e-05
17 *188:DIODE *158:56 4.19841e-05
18 *188:DIODE *158:58 0.000115976
19 *188:DIODE *158:63 5.20441e-05
20 *188:DIODE *158:122 5.04829e-06
21 *189:DIODE *6:7 0.000105167
22 *340:B *340:A_N 0.00032691
23 *340:B *360:A 2.57746e-05
24 *340:B *366:RESET_B 0.000134167
25 *340:B *371:SET_B 1.87049e-05
26 *340:B *11:13 8.5391e-05
27 *340:B *142:8 6.08467e-05
28 *5:5 *6:7 0.000419768
29 *5:19 user_gpio_in 5.58835e-05
30 *5:19 *380:RESET_B 3.58267e-05
31 *5:19 *391:D 0.000188996
32 *5:19 *7:24 0.000449014
33 *5:26 *336:A_N 3.64636e-05
34 *5:26 *339:A 3.8713e-05
35 *5:26 *343:A 4.10791e-05
36 *5:26 *360:A 0.000344279
37 *5:26 *366:SET_B 0.000109402
38 *5:26 *369:SET_B 3.79231e-05
39 *5:26 *370:SET_B 7.27543e-05
40 *5:26 *11:13 0.000711136
41 *5:26 *36:41 0
42 *5:26 *61:11 0.000959351
43 *5:26 *65:21 0.000108929
44 *5:26 *69:15 0.000127809
45 *5:26 *114:8 0
46 *5:26 *120:46 8.33721e-06
47 *5:26 *122:22 0.000112912
48 *5:26 *122:54 0.00016837
49 *5:26 *148:9 0
50 *5:29 *39:7 7.16754e-05
51 *1:13 *5:5 1.78548e-05
*RES
1 gpio_defaults[1] *5:5 5.52679 
2 *5:5 *189:DIODE 15.8268 
3 *5:5 *5:19 9.17313 
4 *5:19 *5:26 46.0268 
5 *5:26 *5:29 5.85714 
6 *5:29 *188:DIODE 26.9964 
7 *5:29 *339:B 9.72857 
8 *5:19 *340:B 28.9875 
*END

*D_NET *6 0.0124869
*CONN
*P gpio_defaults[2] I
*I *330:B I *D sky130_fd_sc_hd__nand2b_2
*I *179:DIODE I *D sky130_fd_sc_hd__diode_2
*I *178:DIODE I *D sky130_fd_sc_hd__diode_2
*I *329:B I *D sky130_fd_sc_hd__or2_0
*CAP
1 gpio_defaults[2] 0.000952897
2 *330:B 0.000520866
3 *179:DIODE 0.000188687
4 *178:DIODE 0.000379755
5 *329:B 0
6 *6:21 0.00136028
7 *6:12 0.00117742
8 *6:7 0.00185935
9 *178:DIODE *187:DIODE 7.71803e-05
10 *178:DIODE *209:DIODE 0.000171904
11 *178:DIODE *123:7 1.88422e-05
12 *178:DIODE *158:77 0.000389566
13 *179:DIODE *186:DIODE 6.27782e-05
14 *179:DIODE *426:A 2.57986e-05
15 *330:B *343:A 0.000237366
16 *330:B *394:A 8.73932e-05
17 *330:B *438:A 0.000124083
18 *330:B *92:7 1.95066e-05
19 *6:7 *379:CLK 0.000198319
20 *6:7 *419:A 5.58266e-05
21 *6:7 *51:14 6.98415e-05
22 *6:7 *116:31 0
23 *6:7 *122:54 0
24 *6:12 *329:A 6.46815e-05
25 *6:12 *355:A 8.23367e-05
26 *6:12 *384:CLK 0.000196836
27 *6:12 *414:A 0
28 *6:12 *9:24 6.27782e-05
29 *6:12 *51:14 0.000145722
30 *6:12 *65:21 1.48325e-05
31 *6:12 *116:28 0.000121172
32 *6:21 *187:DIODE 1.37566e-05
33 *6:21 *329:A 4.76794e-05
34 *6:21 *355:A 0.000699198
35 *6:21 *384:RESET_B 1.82679e-05
36 *6:21 *399:A 0.000291057
37 *6:21 *8:29 0.000337062
38 *6:21 *8:34 0.000199817
39 *6:21 *8:37 0.000396569
40 *6:21 *9:24 0.000652978
41 *6:21 *116:14 3.66361e-05
42 *6:21 *137:10 8.33161e-05
43 *6:21 *143:19 0.000113295
44 *6:21 *157:20 3.3179e-05
45 *189:DIODE *6:7 0.000105167
46 *193:DIODE *178:DIODE 6.64392e-05
47 *343:B *330:B 0.000304838
48 *1:13 *6:7 1.83764e-06
49 *5:5 *6:7 0.000419768
*RES
1 gpio_defaults[2] *6:7 19.5893 
2 *6:7 *6:12 14.5714 
3 *6:12 *329:B 9.3 
4 *6:12 *6:21 30.1429 
5 *6:21 *178:DIODE 22.6929 
6 *6:21 *179:DIODE 16.8 
7 *6:7 *330:B 23.925 
*END

*D_NET *7 0.0207389
*CONN
*P gpio_defaults[3] I
*I *335:B I *D sky130_fd_sc_hd__or2_0
*I *185:DIODE I *D sky130_fd_sc_hd__diode_2
*I *336:B I *D sky130_fd_sc_hd__nand2b_2
*I *184:DIODE I *D sky130_fd_sc_hd__diode_2
*CAP
1 gpio_defaults[3] 0.000637575
2 *335:B 0
3 *185:DIODE 0.00193049
4 *336:B 4.46837e-05
5 *184:DIODE 0.00256637
6 *7:47 0.00237428
7 *7:24 0.00569274
8 *7:13 0.00336484
9 *184:DIODE pad_gpio_ana_sel 8.40176e-06
10 *184:DIODE *120:46 0.00052167
11 *184:DIODE *120:48 0.000259151
12 *184:DIODE *158:63 0
13 *185:DIODE *325:A1 0.000203756
14 *185:DIODE *325:B1 1.03403e-05
15 *185:DIODE *336:A_N 1.00766e-05
16 *185:DIODE *388:D 2.31886e-05
17 *185:DIODE *388:RESET_B 4.59816e-06
18 *185:DIODE *422:A 0.000104572
19 *185:DIODE *36:11 0
20 *185:DIODE *41:21 0
21 *185:DIODE *118:32 1.43136e-05
22 *336:B *336:A_N 0.000107496
23 *7:13 *8:29 2.48115e-05
24 *7:13 *10:26 2.80866e-05
25 *7:13 *11:13 0
26 *7:13 *146:10 5.20674e-05
27 *7:24 user_gpio_in 7.27515e-05
28 *7:24 *391:D 9.1102e-06
29 *7:24 *10:26 2.9964e-05
30 *7:24 *117:51 0.000275791
31 *7:24 *122:22 0.000649975
32 *7:24 *146:10 0.000136556
33 *7:47 *439:A 1.66626e-05
34 *7:47 *120:41 1.66626e-05
35 *7:47 *122:22 0.000564184
36 *1:13 *7:13 0.00020785
37 *1:40 *184:DIODE 6.10536e-05
38 *1:40 *7:47 5.60804e-05
39 *3:44 *184:DIODE 0.00020969
40 *5:19 *7:24 0.000449014
*RES
1 gpio_defaults[3] *7:13 18.0714 
2 *7:13 *7:24 17.5342 
3 *7:24 *184:DIODE 45.7454 
4 *7:24 *7:47 8.99049 
5 *7:47 *336:B 10.2464 
6 *7:47 *185:DIODE 30.2107 
7 *7:13 *335:B 13.8 
*END

*D_NET *8 0.00985209
*CONN
*P gpio_defaults[4] I
*I *337:B I *D sky130_fd_sc_hd__or2_0
*I *338:B I *D sky130_fd_sc_hd__nand2b_2
*I *186:DIODE I *D sky130_fd_sc_hd__diode_2
*I *187:DIODE I *D sky130_fd_sc_hd__diode_2
*CAP
1 gpio_defaults[4] 0.00174428
2 *337:B 8.12611e-05
3 *338:B 6.89197e-05
4 *186:DIODE 4.28882e-05
5 *187:DIODE 0.000140191
6 *8:37 0.000517193
7 *8:34 0.000551294
8 *8:29 0.0019738
9 *187:DIODE *129:10 8.10199e-05
10 *337:B *399:A 0.000206696
11 *8:29 *183:DIODE 4.9895e-05
12 *8:29 *369:D 0.000133439
13 *8:29 *380:D 0.000137531
14 *8:29 *380:RESET_B 1.89382e-05
15 *8:29 *381:D 7.32207e-06
16 *8:29 *383:RESET_B 3.13665e-05
17 *8:29 *384:RESET_B 0.000280426
18 *8:29 *9:15 0.00058638
19 *8:29 *116:14 1.91625e-05
20 *8:29 *120:12 2.58497e-05
21 *8:29 *120:30 3.73211e-05
22 *8:29 *127:11 0
23 *8:29 *143:19 0.000973653
24 *8:34 *399:A 0.000174831
25 *8:34 *116:14 1.19971e-05
26 *8:37 *129:10 4.77589e-05
27 *8:37 *137:10 0.000783041
28 *178:DIODE *187:DIODE 7.71803e-05
29 *179:DIODE *186:DIODE 6.27782e-05
30 *3:44 *187:DIODE 1.36606e-05
31 *6:21 *187:DIODE 1.37566e-05
32 *6:21 *8:29 0.000337062
33 *6:21 *8:34 0.000199817
34 *6:21 *8:37 0.000396569
35 *7:13 *8:29 2.48115e-05
*RES
1 gpio_defaults[4] *8:29 41.4438 
2 *8:29 *8:34 8.41071 
3 *8:34 *8:37 16.1607 
4 *8:37 *187:DIODE 16.8893 
5 *8:37 *186:DIODE 14.3357 
6 *8:34 *338:B 10.2464 
7 *8:29 *337:B 15.5679 
*END

*D_NET *9 0.0141691
*CONN
*P gpio_defaults[5] I
*I *197:DIODE I *D sky130_fd_sc_hd__diode_2
*I *348:B I *D sky130_fd_sc_hd__nand2b_2
*I *198:DIODE I *D sky130_fd_sc_hd__diode_2
*I *347:B I *D sky130_fd_sc_hd__or2_0
*CAP
1 gpio_defaults[5] 0.00270413
2 *197:DIODE 0.000858194
3 *348:B 0
4 *198:DIODE 4.03634e-05
5 *347:B 0.000105641
6 *9:47 0.00153055
7 *9:24 0.000642265
8 *9:15 0.00387275
9 *197:DIODE *200:DIODE 0
10 *197:DIODE *370:SET_B 0.000603588
11 *197:DIODE *376:CLK_N 0
12 *197:DIODE *376:SET_B 0.000435127
13 *197:DIODE *377:CLK_N 6.08467e-05
14 *197:DIODE *426:A 3.25052e-05
15 *197:DIODE *32:12 4.29314e-06
16 *197:DIODE *36:41 0.000129936
17 *197:DIODE *69:15 0.000190001
18 *197:DIODE *94:11 0.000170245
19 *197:DIODE *158:63 0
20 *198:DIODE *384:CLK 0.000122858
21 *198:DIODE *51:14 7.60183e-05
22 *198:DIODE *128:8 1.94224e-05
23 *347:B *384:CLK 0.000173161
24 *347:B *128:8 9.29316e-05
25 *9:15 *380:RESET_B 5.60804e-05
26 *9:15 *381:D 0.000244348
27 *9:15 *10:26 7.90334e-05
28 *9:24 *329:A 1.88563e-05
29 *9:24 *384:RESET_B 1.66771e-05
30 *9:47 *377:CLK_N 0.000236696
31 *9:47 *10:26 1.58953e-05
32 *9:47 *10:27 4.44823e-05
33 *9:47 *38:17 7.92757e-06
34 *9:47 *94:36 0.00015607
35 *9:47 *158:21 4.31485e-06
36 *188:DIODE *197:DIODE 0.000121789
37 *6:12 *9:24 6.27782e-05
38 *6:21 *9:24 0.000652978
39 *8:29 *9:15 0.00058638
*RES
1 gpio_defaults[5] *9:15 22.5644 
2 *9:15 *9:24 19.6104 
3 *9:24 *347:B 16.8893 
4 *9:24 *198:DIODE 15.4429 
5 *9:15 *9:47 11.6168 
6 *9:47 *348:B 9.3 
7 *9:47 *197:DIODE 39.0857 
*END

*D_NET *10 0.0143447
*CONN
*P gpio_defaults[6] I
*I *350:B I *D sky130_fd_sc_hd__nand2b_2
*I *349:B I *D sky130_fd_sc_hd__or2_0
*I *199:DIODE I *D sky130_fd_sc_hd__diode_2
*I *200:DIODE I *D sky130_fd_sc_hd__diode_2
*CAP
1 gpio_defaults[6] 0.00137557
2 *350:B 2.86212e-05
3 *349:B 0.000519134
4 *199:DIODE 0
5 *200:DIODE 0.000240852
6 *10:41 0.00084452
7 *10:29 0.00064863
8 *10:27 0.000595183
9 *10:26 0.00185974
10 *200:DIODE *318:A 0.000224624
11 *200:DIODE *376:CLK_N 0.000188239
12 *200:DIODE *426:A 1.83992e-05
13 *200:DIODE *36:41 2.88594e-05
14 *349:B *352:A_N 0.000171677
15 *349:B *439:A 1.60111e-05
16 *349:B *11:32 4.13237e-05
17 *349:B *103:8 0.00051221
18 *349:B *113:14 0.000111788
19 *349:B *153:10 2.95006e-05
20 *350:B *376:SET_B 6.08467e-05
21 *10:26 pad_gpio_vtrip_sel 0
22 *10:26 *330:A_N 0.000419057
23 *10:26 *335:A 0
24 *10:26 *336:A_N 7.09558e-05
25 *10:26 *381:D 0.00017416
26 *10:26 *391:CLK 0.000788557
27 *10:26 *391:D 5.91586e-05
28 *10:26 *396:A 0.000489673
29 *10:26 *59:19 5.99857e-06
30 *10:26 *65:21 0.00033268
31 *10:26 *115:22 2.58954e-06
32 *10:26 *157:31 0.000244565
33 *10:26 *157:42 0.000106335
34 *10:26 *157:55 0.000377189
35 *10:27 *318:A 0.000395855
36 *10:27 *376:CLK_N 0.000346477
37 *10:27 *377:CLK_N 0.000185505
38 *10:27 *396:A 0.000299374
39 *10:27 *427:A 4.41583e-05
40 *10:27 *93:10 1.34407e-05
41 *10:27 *157:85 0.000288651
42 *10:27 *158:21 0.000102788
43 *10:29 *318:A 0.000166252
44 *10:29 *376:CLK_N 0.000180318
45 *10:41 *353:A 0.000216467
46 *10:41 *124:7 0.000118672
47 *10:41 *158:8 0.000160942
48 *10:41 *158:55 0.000191933
49 *196:DIODE *349:B 0.000403253
50 *196:DIODE *10:41 0.000107496
51 *197:DIODE *200:DIODE 0
52 *3:17 *10:26 0.000339055
53 *7:13 *10:26 2.80866e-05
54 *7:24 *10:26 2.9964e-05
55 *9:15 *10:26 7.90334e-05
56 *9:47 *10:26 1.58953e-05
57 *9:47 *10:27 4.44823e-05
*RES
1 gpio_defaults[6] *10:26 42.4802 
2 *10:26 *10:27 14.2411 
3 *10:27 *10:29 2.55357 
4 *10:29 *200:DIODE 18.7107 
5 *10:29 *10:41 12.0179 
6 *10:41 *199:DIODE 9.3 
7 *10:41 *349:B 31.2464 
8 *10:27 *350:B 14.3357 
*END

*D_NET *11 0.0112915
*CONN
*P gpio_defaults[7] I
*I *351:B I *D sky130_fd_sc_hd__or2_0
*I *352:B I *D sky130_fd_sc_hd__nand2b_2
*I *201:DIODE I *D sky130_fd_sc_hd__diode_2
*I *202:DIODE I *D sky130_fd_sc_hd__diode_2
*CAP
1 gpio_defaults[7] 0.00175675
2 *351:B 0
3 *352:B 4.35627e-05
4 *201:DIODE 0
5 *202:DIODE 9.19521e-05
6 *11:32 0.000622451
7 *11:23 0.000905704
8 *11:16 0.00035357
9 *11:13 0.00177868
10 *202:DIODE *123:10 0.000183794
11 *202:DIODE *153:10 7.6561e-05
12 *352:B *372:CLK_N 7.01935e-06
13 *352:B *446:A 0.000109427
14 *11:13 *331:A 0.000201933
15 *11:13 *360:A 1.16107e-05
16 *11:13 *367:RESET_B 6.08467e-05
17 *11:13 *369:SET_B 0.000169314
18 *11:13 *386:CLK 0.000342958
19 *11:13 *398:A 1.02497e-05
20 *11:13 *411:A 0.000366919
21 *11:13 *412:A 9.89388e-06
22 *11:13 *433:A 9.71867e-05
23 *11:13 *437:A 0.000300031
24 *11:13 *440:A 1.48943e-05
25 *11:13 *12:7 0.000146742
26 *11:13 *12:16 0.000168109
27 *11:13 *12:28 2.81262e-05
28 *11:13 *57:17 0
29 *11:13 *123:10 0.000236253
30 *11:13 *153:10 0.000308033
31 *11:16 *115:42 6.08467e-05
32 *11:23 *377:SET_B 0.000326026
33 *11:23 *36:11 1.19726e-05
34 *11:23 *113:14 0.00031766
35 *11:23 *115:42 3.27857e-05
36 *11:23 *115:51 0.000107496
37 *11:32 pad_gpio_dm[1] 0.000326637
38 *11:32 *377:SET_B 5.23435e-05
39 *11:32 *113:14 0.000312443
40 *11:32 *122:22 2.02509e-05
41 *196:DIODE *11:32 0.000408102
42 *340:B *11:13 8.5391e-05
43 *349:B *11:32 4.13237e-05
44 *1:40 *11:13 6.74182e-05
45 *4:23 *11:13 7.09666e-06
46 *5:26 *11:13 0.000711136
47 *7:13 *11:13 0
*RES
1 gpio_defaults[7] *11:13 48.2679 
2 *11:13 *11:16 5.03571 
3 *11:16 *11:23 12.3036 
4 *11:23 *11:32 15.375 
5 *11:32 *202:DIODE 20.8536 
6 *11:32 *201:DIODE 9.3 
7 *11:23 *352:B 14.7464 
8 *11:16 *351:B 9.3 
*END

*D_NET *12 0.00954709
*CONN
*P gpio_defaults[8] I
*I *180:DIODE I *D sky130_fd_sc_hd__diode_2
*I *181:DIODE I *D sky130_fd_sc_hd__diode_2
*I *332:B I *D sky130_fd_sc_hd__nand2b_2
*I *331:B I *D sky130_fd_sc_hd__or2_0
*CAP
1 gpio_defaults[8] 0.000429605
2 *180:DIODE 0.000404209
3 *181:DIODE 0.000593486
4 *332:B 0.000170481
5 *331:B 0
6 *12:28 0.00106704
7 *12:16 0.000725628
8 *12:7 0.00125637
9 *180:DIODE *143:19 0.00021217
10 *180:DIODE *164:15 7.36692e-05
11 *181:DIODE *365:RESET_B 0.000130109
12 *181:DIODE *365:SET_B 0.000133526
13 *181:DIODE *390:RESET_B 4.99006e-05
14 *181:DIODE *391:D 0.000497173
15 *181:DIODE *415:A 9.32983e-05
16 *181:DIODE *38:17 0
17 *181:DIODE *97:15 0
18 *181:DIODE *98:8 0.000101411
19 *181:DIODE *119:59 1.83409e-05
20 *181:DIODE *119:70 0.000103854
21 *181:DIODE *119:79 0.000367085
22 *181:DIODE *140:22 0
23 *332:B *389:D 0
24 *332:B *434:A 0.00027623
25 *332:B *119:37 1.37385e-05
26 *332:B *119:59 5.38612e-06
27 *12:7 *13:11 4.62703e-05
28 *12:7 *51:14 0.000251949
29 *12:16 *369:SET_B 5.80392e-05
30 *12:16 *398:A 0.000238532
31 *12:16 *411:A 0.000366919
32 *12:16 *51:14 0.000372366
33 *12:16 *114:8 1.55329e-05
34 *12:28 *331:A 0.00025175
35 *12:28 *398:A 0.000257389
36 *12:28 *410:A 6.3657e-05
37 *4:23 *332:B 0.000290088
38 *4:23 *12:28 0.000268917
39 *11:13 *12:7 0.000146742
40 *11:13 *12:16 0.000168109
41 *11:13 *12:28 2.81262e-05
*RES
1 gpio_defaults[8] *12:7 8.94643 
2 *12:7 *12:16 16.3036 
3 *12:16 *331:B 9.3 
4 *12:16 *12:28 12.5714 
5 *12:28 *332:B 18.4786 
6 *12:28 *181:DIODE 28.0857 
7 *12:7 *180:DIODE 18.4429 
*END

*D_NET *13 0.0206319
*CONN
*P gpio_defaults[9] I
*I *333:B I *D sky130_fd_sc_hd__or2_0
*I *334:B I *D sky130_fd_sc_hd__nand2b_2
*I *182:DIODE I *D sky130_fd_sc_hd__diode_2
*I *183:DIODE I *D sky130_fd_sc_hd__diode_2
*CAP
1 gpio_defaults[9] 0.000739553
2 *333:B 0.000237897
3 *334:B 0.00018031
4 *182:DIODE 0
5 *183:DIODE 0.00143847
6 *13:50 0.00172607
7 *13:41 0.00210271
8 *13:40 0.00204377
9 *13:11 0.00378757
10 *183:DIODE *380:RESET_B 0
11 *183:DIODE *419:A 6.27782e-05
12 *183:DIODE *34:7 7.48998e-06
13 *183:DIODE *51:14 0.00115716
14 *183:DIODE *117:51 6.03237e-05
15 *183:DIODE *127:11 5.15114e-05
16 *333:B *36:10 0
17 *333:B *42:11 0.000100208
18 *334:B *334:A_N 3.82228e-05
19 *334:B *368:SET_B 0.000107496
20 *13:11 serial_data_out 0
21 *13:11 *51:14 0.000563361
22 *13:11 *114:8 6.45209e-05
23 *13:11 *117:51 0
24 *13:40 serial_data_out 0
25 *13:40 *324:A2 7.28441e-05
26 *13:40 *324:B1 0.000203756
27 *13:40 *390:CLK 0.000140268
28 *13:40 *34:7 0.000182981
29 *13:40 *117:51 0.000293893
30 *13:40 *119:70 3.88213e-05
31 *13:40 *140:22 0.000147093
32 *13:40 *162:10 0.00015607
33 *13:40 *163:13 0.000117354
34 *13:41 *36:10 0
35 *13:41 *42:11 0.000109083
36 *13:50 *217:DIODE 1.52231e-05
37 *13:50 *341:A 0.00136043
38 *13:50 *424:A 6.00417e-05
39 *13:50 *428:A 3.71612e-05
40 *13:50 *16:12 7.90662e-05
41 *13:50 *36:10 0
42 *13:50 *42:11 0.000409861