*SPEF "ieee 1481-1999"
*DESIGN "gpio_control_block"
*DATE "11:11:11 Fri 11 11, 1111"
*VENDOR "OpenRCX"
*PROGRAM "Parallel Extraction"
*VERSION "1.0"
*DESIGN_FLOW "NAME_SCOPE LOCAL" "PIN_CAP NONE"
*DIVIDER /
*DELIMITER :
*BUS_DELIMITER []
*T_UNIT 1 NS
*C_UNIT 1 PF
*R_UNIT 1 OHM
*L_UNIT 1 HENRY

*NAME_MAP
*1 gpio_defaults[0]
*2 gpio_defaults[10]
*3 gpio_defaults[11]
*4 gpio_defaults[12]
*5 gpio_defaults[1]
*6 gpio_defaults[2]
*7 gpio_defaults[3]
*8 gpio_defaults[4]
*9 gpio_defaults[5]
*10 gpio_defaults[6]
*11 gpio_defaults[7]
*12 gpio_defaults[8]
*13 gpio_defaults[9]
*14 mgmt_gpio_in
*15 mgmt_gpio_oeb
*16 mgmt_gpio_out
*17 one
*18 pad_gpio_ana_en
*19 pad_gpio_ana_pol
*20 pad_gpio_ana_sel
*21 pad_gpio_dm[0]
*22 pad_gpio_dm[1]
*23 pad_gpio_dm[2]
*24 pad_gpio_holdover
*25 pad_gpio_ib_mode_sel
*26 pad_gpio_in
*27 pad_gpio_inenb
*28 pad_gpio_out
*29 pad_gpio_outenb
*30 pad_gpio_slow_sel
*31 pad_gpio_vtrip_sel
*32 resetn
*33 resetn_out
*34 serial_clock
*35 serial_clock_out
*36 serial_data_in
*37 serial_data_out
*38 serial_load
*39 serial_load_out
*40 user_gpio_in
*41 user_gpio_oeb
*42 user_gpio_out
*47 zero
*48 _000_
*49 _001_
*50 _002_
*51 _003_
*52 _004_
*53 _005_
*54 _006_
*55 _007_
*56 _008_
*57 _009_
*58 _010_
*59 _011_
*60 _012_
*61 _013_
*62 _014_
*63 _015_
*64 _016_
*65 _017_
*66 _018_
*67 _019_
*68 _020_
*69 _021_
*70 _022_
*71 _023_
*72 _024_
*73 _025_
*74 _026_
*75 _027_
*76 _042_
*77 _043_
*78 _044_
*79 _045_
*80 _046_
*81 _047_
*82 _048_
*83 _049_
*84 _050_
*85 _051_
*86 _052_
*87 _053_
*88 _054_
*89 _055_
*90 _056_
*91 _057_
*92 clknet_0_serial_clock
*93 clknet_0_serial_load
*94 clknet_1_0__leaf_serial_clock
*95 clknet_1_0__leaf_serial_load
*96 clknet_1_1__leaf_serial_clock
*97 clknet_1_1__leaf_serial_load
*98 gpio_logic1
*99 gpio_outenb
*100 mgmt_ena
*101 net1
*102 net10
*103 net11
*104 net12
*105 net13
*106 net14
*107 net15
*108 net16
*109 net17
*110 net18
*111 net19
*112 net2
*113 net20
*114 net21
*115 net22
*116 net23
*117 net24
*118 net25
*119 net26
*120 net27
*121 net3
*122 net4
*123 net5
*124 net6
*125 net7
*126 net8
*127 net9
*128 shift_register\[0\]
*129 shift_register\[10\]
*130 shift_register\[11\]
*131 shift_register\[12\]
*132 shift_register\[1\]
*133 shift_register\[2\]
*134 shift_register\[3\]
*135 shift_register\[4\]
*136 shift_register\[5\]
*137 shift_register\[6\]
*138 shift_register\[7\]
*139 shift_register\[8\]
*140 shift_register\[9\]
*141 ANTENNA__058__A
*142 ANTENNA__061__A_N
*143 ANTENNA__062__B
*144 ANTENNA__063__A2
*145 ANTENNA__064__A_N
*146 ANTENNA__064__C
*147 ANTENNA__065__A0
*148 ANTENNA__066__A0
*149 ANTENNA__067__A
*150 ANTENNA__067__B
*151 ANTENNA__068__A_N
*152 ANTENNA__068__B
*153 ANTENNA__069__A
*154 ANTENNA__069__B
*155 ANTENNA__070__A_N
*156 ANTENNA__070__B
*157 ANTENNA__071__A
*158 ANTENNA__071__B
*159 ANTENNA__072__A_N
*160 ANTENNA__072__B
*161 ANTENNA__073__A
*162 ANTENNA__073__B
*163 ANTENNA__074__A_N
*164 ANTENNA__074__B
*165 ANTENNA__075__A
*166 ANTENNA__075__B
*167 ANTENNA__076__A_N
*168 ANTENNA__076__B
*169 ANTENNA__077__A
*170 ANTENNA__077__B
*171 ANTENNA__078__A_N
*172 ANTENNA__078__B
*173 ANTENNA__079__A
*174 ANTENNA__079__B
*175 ANTENNA__080__A_N
*176 ANTENNA__080__B
*177 ANTENNA__081__A
*178 ANTENNA__081__B
*179 ANTENNA__082__A_N
*180 ANTENNA__082__B
*181 ANTENNA__083__A
*182 ANTENNA__083__B
*183 ANTENNA__084__A_N
*184 ANTENNA__084__B
*185 ANTENNA__085__A
*186 ANTENNA__085__B
*187 ANTENNA__086__A_N
*188 ANTENNA__086__B
*189 ANTENNA__087__A
*190 ANTENNA__087__B
*191 ANTENNA__088__A_N
*192 ANTENNA__088__B
*193 ANTENNA__089__A
*194 ANTENNA__089__B
*195 ANTENNA__090__A_N
*196 ANTENNA__090__B
*197 ANTENNA__091__A
*198 ANTENNA__091__B
*199 ANTENNA__092__A_N
*200 ANTENNA__092__B
*201 ANTENNA__118__D
*202 ANTENNA__118__RESET_B
*203 ANTENNA__119__RESET_B
*204 ANTENNA__120__RESET_B
*205 ANTENNA__121__RESET_B
*206 ANTENNA__122__RESET_B
*207 ANTENNA__123__RESET_B
*208 ANTENNA__124__RESET_B
*209 ANTENNA__125__RESET_B
*210 ANTENNA__126__RESET_B
*211 ANTENNA__127__RESET_B
*212 ANTENNA__128__RESET_B
*213 ANTENNA__129__RESET_B
*214 ANTENNA__130__RESET_B
*215 ANTENNA__131__RESET_B
*216 ANTENNA__132__A
*217 ANTENNA__135__A
*218 ANTENNA_clkbuf_0_serial_clock_A
*219 ANTENNA_clkbuf_0_serial_load_A
*220 FILLER_0_50
*221 FILLER_0_52
*222 FILLER_0_64
*223 FILLER_0_76
*224 FILLER_0_80
*225 FILLER_10_27
*226 FILLER_10_3
*227 FILLER_10_44
*228 FILLER_10_76
*229 FILLER_11_15
*230 FILLER_11_3
*231 FILLER_11_48
*232 FILLER_12_15
*233 FILLER_12_3
*234 FILLER_13_3
*235 FILLER_13_35
*236 FILLER_14_3
*237 FILLER_14_38
*238 FILLER_14_83
*239 FILLER_14_85
*240 FILLER_15_3
*241 FILLER_15_65
*242 FILLER_16_3
*243 FILLER_17_11
*244 FILLER_17_3
*245 FILLER_17_72
*246 FILLER_18_15
*247 FILLER_18_24
*248 FILLER_18_3
*249 FILLER_18_44
*250 FILLER_18_48
*251 FILLER_18_52
*252 FILLER_18_61
*253 FILLER_18_66
*254 FILLER_18_71
*255 FILLER_18_79
*256 FILLER_18_85
*257 FILLER_1_56
*258 FILLER_1_68
*259 FILLER_1_71
*260 FILLER_1_75
*261 FILLER_1_78
*262 FILLER_1_82
*263 FILLER_2_40
*264 FILLER_2_44
*265 FILLER_2_70
*266 FILLER_2_83
*267 FILLER_3_39
*268 FILLER_3_93
*269 FILLER_6_50
*270 FILLER_6_60
*271 FILLER_7_76
*272 FILLER_7_93
*273 FILLER_8_29
*274 FILLER_8_3
*275 FILLER_9_3
*276 PHY_0
*277 PHY_1
*278 PHY_10
*279 PHY_11
*280 PHY_12
*281 PHY_13
*282 PHY_14
*283 PHY_15
*284 PHY_16
*285 PHY_17
*286 PHY_18
*287 PHY_19
*288 PHY_2
*289 PHY_20
*290 PHY_21
*291 PHY_22
*292 PHY_23
*293 PHY_24
*294 PHY_25
*295 PHY_26
*296 PHY_27
*297 PHY_28
*298 PHY_29
*299 PHY_3
*300 PHY_30
*301 PHY_31
*302 PHY_32
*303 PHY_33
*304 PHY_34
*305 PHY_35
*306 PHY_36
*307 PHY_37
*308 PHY_4
*309 PHY_5
*310 PHY_6
*311 PHY_7
*312 PHY_8
*313 PHY_9
*314 TAP_38
*315 TAP_39
*316 TAP_40
*317 TAP_41
*318 TAP_42
*319 TAP_43
*320 TAP_44
*321 TAP_45
*322 TAP_46
*323 TAP_47
*324 TAP_48
*325 TAP_49
*326 TAP_50
*327 TAP_51
*328 TAP_52
*329 TAP_53
*330 TAP_54
*331 TAP_55
*332 TAP_56
*333 TAP_57
*334 TAP_58
*335 TAP_59
*336 TAP_60
*337 TAP_61
*338 TAP_62
*339 TAP_63
*340 TAP_64
*341 TAP_65
*342 _058_
*343 _059__1
*344 _060__14
*345 _061_
*346 _062_
*347 _063_
*348 _064_
*349 _065_
*350 _066_
*351 _067_
*352 _068_
*353 _069_
*354 _070_
*355 _071_
*356 _072_
*357 _073_
*358 _074_
*359 _075_
*360 _076_
*361 _077_
*362 _078_
*363 _079_
*364 _080_
*365 _081_
*366 _082_
*367 _083_
*368 _084_
*369 _085_
*370 _086_
*371 _087_
*372 _088_
*373 _089_
*374 _090_
*375 _091_
*376 _092_
*377 _093__2
*378 _094__3
*379 _095__4
*380 _096__5
*381 _097__6
*382 _098__7
*383 _099__8
*384 _100__9
*385 _101__10
*386 _102__11
*387 _103__12
*388 _104__13
*389 _105_
*390 _106_
*391 _107_
*392 _108_
*393 _109_
*394 _110_
*395 _111_
*396 _112_
*397 _113_
*398 _114_
*399 _115_
*400 _116_
*401 _117_
*402 _118_
*403 _119_
*404 _120_
*405 _121_
*406 _122_
*407 _123_
*408 _124_
*409 _125_
*410 _126_
*411 _127_
*412 _128_
*413 _129_
*414 _130_
*415 _131_
*416 _132_
*417 _133_
*418 _134_
*419 _135_
*420 clkbuf_0_serial_clock
*421 clkbuf_0_serial_load
*422 clkbuf_1_0__f_serial_clock
*423 clkbuf_1_0__f_serial_load
*424 clkbuf_1_1__f_serial_clock
*425 clkbuf_1_1__f_serial_load
*426 const_source
*427 gpio_in_buf
*428 gpio_logic_high
*429 hold1
*430 hold10
*431 hold11
*432 hold12
*433 hold13
*434 hold2
*435 hold3
*436 hold4
*437 hold5
*438 hold6
*439 hold7
*440 hold8
*441 hold9

*PORTS
gpio_defaults[0] I
gpio_defaults[10] I
gpio_defaults[11] I
gpio_defaults[12] I
gpio_defaults[1] I
gpio_defaults[2] I
gpio_defaults[3] I
gpio_defaults[4] I
gpio_defaults[5] I
gpio_defaults[6] I
gpio_defaults[7] I
gpio_defaults[8] I
gpio_defaults[9] I
mgmt_gpio_in O
mgmt_gpio_oeb I
mgmt_gpio_out I
one O
pad_gpio_ana_en O
pad_gpio_ana_pol O
pad_gpio_ana_sel O
pad_gpio_dm[0] O
pad_gpio_dm[1] O
pad_gpio_dm[2] O
pad_gpio_holdover O
pad_gpio_ib_mode_sel O
pad_gpio_in I
pad_gpio_inenb O
pad_gpio_out O
pad_gpio_outenb O
pad_gpio_slow_sel O
pad_gpio_vtrip_sel O
resetn I
resetn_out O
serial_clock I
serial_clock_out O
serial_data_in I
serial_data_out O
serial_load I
serial_load_out O
user_gpio_in O
user_gpio_oeb I
user_gpio_out I
zero O

*D_NET *1 0.00480177
*CONN
*P gpio_defaults[0] I
*I *150:DIODE I *D sky130_fd_sc_hd__diode_2
*I *152:DIODE I *D sky130_fd_sc_hd__diode_2
*I *351:B I *D sky130_fd_sc_hd__or2_2
*I *352:B I *D sky130_fd_sc_hd__nand2b_2
*CAP
1 gpio_defaults[0] 0.00171592
2 *150:DIODE 0.000153561
3 *152:DIODE 2.56688e-05
4 *351:B 8.55626e-05
5 *352:B 0
6 *1:34 0.000262208
7 *1:18 0.000189949
8 *1:15 0.000420177
9 *1:14 0.00194873
10 *150:DIODE *343:A 0
11 *150:DIODE *3:21 0
12 *150:DIODE *32:639 0
13 *152:DIODE *343:A 0
14 *351:B *32:534 0
15 *351:B *97:60 0
16 *1:14 *395:RESET_B 0
17 *1:14 *403:CLK 0
18 *1:14 *404:CLK 0
19 *1:14 *404:D 0
20 *1:14 *435:A 0
21 *1:14 *5:10 0
22 *1:14 *6:12 0
23 *1:14 *94:46 0
24 *1:14 *113:10 0
25 *1:15 *344:A 0
26 *1:15 *389:SET_B 0
27 *1:15 *3:21 0
28 *1:18 *32:534 0
29 *1:18 *32:620 0
30 *1:34 *3:21 0
31 *1:34 *32:629 0
*RES
1 gpio_defaults[0] *1:14 45.9464 
2 *1:14 *1:15 5.28571 
3 *1:15 *1:18 6.67857 
4 *1:18 *352:B 9.3 
5 *1:18 *351:B 11.2107 
6 *1:15 *1:34 1.94643 
7 *1:34 *152:DIODE 14.3357 
8 *1:34 *150:DIODE 17.1214 
*END

*D_NET *2 0.00550741
*CONN
*P gpio_defaults[10] I
*I *178:DIODE I *D sky130_fd_sc_hd__diode_2
*I *365:B I *D sky130_fd_sc_hd__or2_2
*I *366:B I *D sky130_fd_sc_hd__nand2b_2
*I *180:DIODE I *D sky130_fd_sc_hd__diode_2
*CAP
1 gpio_defaults[10] 0.00207946
2 *178:DIODE 2.26741e-05
3 *365:B 6.50276e-05
4 *366:B 0
5 *180:DIODE 0
6 *2:27 0.000150602
7 *2:22 0.000229319
8 *2:16 0.000500969
9 *2:13 0.00245936
10 *365:B *32:131 0
11 *2:13 pad_gpio_holdover 0
12 *2:13 pad_gpio_ib_mode_sel 0
13 *2:13 *389:CLK_N 0
14 *2:13 *395:RESET_B 0
15 *2:13 *3:21 0
16 *2:13 *11:16 0
17 *2:13 *13:8 0
*RES
1 gpio_defaults[10] *2:13 47.375 
2 *2:13 *2:16 12.4286 
3 *2:16 *180:DIODE 9.3 
4 *2:16 *2:22 2.58929 
5 *2:22 *2:27 10.9464 
6 *2:27 *366:B 9.3 
7 *2:27 *365:B 10.6571 
8 *2:22 *178:DIODE 9.83571 
*END

*D_NET *3 0.00571347
*CONN
*P gpio_defaults[11] I
*I *367:B I *D sky130_fd_sc_hd__or2_2
*I *182:DIODE I *D sky130_fd_sc_hd__diode_2
*I *184:DIODE I *D sky130_fd_sc_hd__diode_2
*I *368:B I *D sky130_fd_sc_hd__nand2b_2
*CAP
1 gpio_defaults[11] 0.00183236
2 *367:B 0.000163425
3 *182:DIODE 6.35302e-05
4 *184:DIODE 0
5 *368:B 8.4707e-05
6 *3:34 0.000180323
7 *3:31 0.000605167
8 *3:23 0.000780525
9 *3:21 0.00200344
10 *182:DIODE *32:216 0
11 *367:B *433:A 0
12 *367:B *32:334 0
13 *367:B *32:348 0
14 *368:B *32:210 0
15 *3:21 *219:DIODE 0
16 *3:21 *392:CLK_N 0
17 *3:21 *392:SET_B 0
18 *3:21 *395:RESET_B 0
19 *3:21 *419:TE_B 0
20 *3:21 *429:A 0
21 *3:21 *434:A 0
22 *3:21 *4:16 0
23 *3:21 *13:8 0
24 *3:21 *32:639 0
25 *3:21 *99:20 0
26 *3:23 *32:333 0
27 *3:31 *347:A2 0
28 *3:31 *396:SET_B 0
29 *3:31 *397:RESET_B 0
30 *3:31 *397:SET_B 0
31 *3:31 *26:35 0
32 *3:34 *32:210 0
33 *150:DIODE *3:21 0
34 *1:15 *3:21 0
35 *1:34 *3:21 0
36 *2:13 *3:21 0
*RES
1 gpio_defaults[11] *3:21 49.7768 
2 *3:21 *3:23 3.91964 
3 *3:23 *3:31 14.6964 
4 *3:31 *3:34 2.08929 
5 *3:34 *368:B 11.0679 
6 *3:34 *184:DIODE 9.3 
7 *3:31 *182:DIODE 10.6571 
8 *3:23 *367:B 17.2107 
*END

*D_NET *4 0.00283549
*CONN
*P gpio_defaults[12] I
*I *186:DIODE I *D sky130_fd_sc_hd__diode_2
*I *369:B I *D sky130_fd_sc_hd__or2_2
*I *370:B I *D sky130_fd_sc_hd__nand2b_2
*I *188:DIODE I *D sky130_fd_sc_hd__diode_2
*CAP
1 gpio_defaults[12] 0.000609828
2 *186:DIODE 0.000245137
3 *369:B 0.000275084
4 *370:B 4.56186e-05
5 *188:DIODE 0
6 *4:25 0.000540104
7 *4:22 0.000487213
8 *4:16 0.000632502
9 *186:DIODE *216:DIODE 0
10 *186:DIODE *32:706 0
11 *186:DIODE *32:712 0
12 *369:B *32:669 0
13 *369:B *32:675 0
14 *370:B *415:D 0
15 *370:B *32:669 0
16 *370:B *38:8 0
17 *4:16 *32:639 0
18 *4:16 *32:645 0
19 *4:16 *32:651 0
20 *4:16 *32:657 0
21 *4:25 *415:D 0
22 *4:25 *32:660 0
23 *4:25 *32:669 0
24 *3:21 *4:16 0
*RES
1 gpio_defaults[12] *4:16 19 
2 *4:16 *188:DIODE 9.3 
3 *4:16 *4:22 0.535714 
4 *4:22 *4:25 9.48214 
5 *4:25 *370:B 14.8357 
6 *4:25 *369:B 19.4786 
7 *4:22 *186:DIODE 14.3536 
*END

*D_NET *5 0.00238231
*CONN
*P gpio_defaults[1] I
*I *363:B I *D sky130_fd_sc_hd__or2_2
*I *174:DIODE I *D sky130_fd_sc_hd__diode_2
*I *364:B I *D sky130_fd_sc_hd__nand2b_2
*I *176:DIODE I *D sky130_fd_sc_hd__diode_2
*CAP
1 gpio_defaults[1] 0.000713434
2 *363:B 0.000127967
3 *174:DIODE 0
4 *364:B 0
5 *176:DIODE 0
6 *5:26 0.000311071
7 *5:21 0.000349754
8 *5:10 0.000880085
9 *5:10 *377:A 0
10 *5:10 *6:12 0
11 *5:10 *7:10 0
12 *5:21 *377:A 0
13 *5:21 *11:12 0
14 *5:26 *175:DIODE 0
15 *5:26 *377:A 0
16 *1:14 *5:10 0
*RES
1 gpio_defaults[1] *5:10 19.8929 
2 *5:10 *176:DIODE 9.3 
3 *5:10 *5:21 12.625 
4 *5:21 *364:B 9.3 
5 *5:21 *5:26 3.82143 
6 *5:26 *174:DIODE 9.3 
7 *5:26 *363:B 21.1929 
*END

*D_NET *6 0.00369255
*CONN
*P gpio_defaults[2] I
*I *154:DIODE I *D sky130_fd_sc_hd__diode_2
*I *353:B I *D sky130_fd_sc_hd__or2_2
*I *156:DIODE I *D sky130_fd_sc_hd__diode_2
*I *354:B I *D sky130_fd_sc_hd__nand2b_2
*CAP
1 gpio_defaults[2] 0.000734002
2 *154:DIODE 0
3 *353:B 4.0439e-05
4 *156:DIODE 0.000221924
5 *354:B 8.4707e-05
6 *6:23 0.00088937
7 *6:16 0.000805641
8 *6:12 0.000916465
9 *156:DIODE *390:RESET_B 0
10 *156:DIODE *395:SET_B 0
11 *156:DIODE *11:12 0
12 *353:B *32:433 0
13 *354:B *382:A 0
14 *354:B *403:D 0
15 *354:B *32:559 0
16 *6:12 *404:RESET_B 0
17 *6:12 *405:D 0
18 *6:12 *435:A 0
19 *6:12 *7:10 0
20 *6:16 *404:RESET_B 0
21 *6:16 *32:433 0
22 *6:16 *32:435 0
23 *6:23 *359:B 0
24 *6:23 *390:RESET_B 0
25 *6:23 *7:19 0
26 *6:23 *10:14 0
27 *6:23 *11:12 0
28 *6:23 *32:421 0
29 *1:14 *6:12 0
30 *5:10 *6:12 0
*RES
1 gpio_defaults[2] *6:12 21.1071 
2 *6:12 *6:16 3.92857 
3 *6:16 *6:23 17.3214 
4 *6:23 *354:B 15.5679 
5 *6:23 *156:DIODE 18.8179 
6 *6:16 *353:B 10.2464 
7 *6:12 *154:DIODE 9.3 
*END

*D_NET *7 0.00287686
*CONN
*P gpio_defaults[3] I
*I *359:B I *D sky130_fd_sc_hd__or2_2
*I *360:B I *D sky130_fd_sc_hd__nand2b_2
*I *168:DIODE I *D sky130_fd_sc_hd__diode_2
*I *166:DIODE I *D sky130_fd_sc_hd__diode_2
*CAP
1 gpio_defaults[3] 0.000731194
2 *359:B 0.000212623
3 *360:B 0.000186251
4 *168:DIODE 4.53482e-05
5 *166:DIODE 0
6 *7:23 0.000410829
7 *7:19 0.000475637
8 *7:10 0.000814978
9 *168:DIODE *393:CLK_N 0
10 *359:B *10:14 0
11 *359:B *32:427 0
12 *359:B *32:429 0
13 *359:B *32:431 0
14 *360:B *380:A 0
15 *7:10 *404:RESET_B 0
16 *7:10 *8:9 0
17 *5:10 *7:10 0
18 *6:12 *7:10 0
19 *6:23 *359:B 0
20 *6:23 *7:19 0
*RES
1 gpio_defaults[3] *7:10 20.9821 
2 *7:10 *166:DIODE 9.3 
3 *7:10 *7:19 6.48214 
4 *7:19 *7:23 8.57143 
5 *7:23 *168:DIODE 10.2464 
6 *7:23 *360:B 22.3357 
7 *7:19 *359:B 18.175 
*END

*D_NET *8 0.00421179
*CONN
*P gpio_defaults[4] I
*I *172:DIODE I *D sky130_fd_sc_hd__diode_2
*I *362:B I *D sky130_fd_sc_hd__nand2b_2
*I *361:B I *D sky130_fd_sc_hd__or2_2
*I *170:DIODE I *D sky130_fd_sc_hd__diode_2
*CAP
1 gpio_defaults[4] 0.00100742
2 *172:DIODE 0.000124066
3 *362:B 0.00014075
4 *361:B 0.0002819
5 *170:DIODE 0.000255445
6 *8:23 0.000566396
7 *8:11 0.000551757
8 *8:9 0.00128406
9 *170:DIODE *207:DIODE 0
10 *170:DIODE *381:A 0
11 *170:DIODE *9:5 0
12 *170:DIODE *116:8 0
13 *172:DIODE *160:DIODE 0
14 *361:B *410:CLK 0
15 *361:B *9:5 0
16 *361:B *32:257 0
17 *362:B *441:A 0
18 *8:9 *390:CLK_N 0
19 *8:9 *403:RESET_B 0
20 *8:9 *9:5 0
21 *8:9 *32:572 0
22 *8:11 *406:D 0
23 *8:11 *9:5 0
24 *8:11 *110:8 0
25 *8:23 *406:D 0
26 *8:23 *441:A 0
27 *8:23 *116:8 0
28 *7:10 *8:9 0
*RES
1 gpio_defaults[4] *8:9 22.9464 
2 *8:9 *8:11 3.46429 
3 *8:11 *170:DIODE 19.2643 
4 *8:11 *8:23 7.5 
5 *8:23 *361:B 24.6571 
6 *8:23 *362:B 12.3 
7 *8:9 *172:DIODE 16.3893 
*END

*D_NET *9 0.00532761
*CONN
*P gpio_defaults[5] I
*I *192:DIODE I *D sky130_fd_sc_hd__diode_2
*I *371:B I *D sky130_fd_sc_hd__or2_2
*I *190:DIODE I *D sky130_fd_sc_hd__diode_2
*I *372:B I *D sky130_fd_sc_hd__nand2b_2
*CAP
1 gpio_defaults[5] 0.00162418
2 *192:DIODE 2.56688e-05
3 *371:B 0
4 *190:DIODE 0.000437839
5 *372:B 1.90377e-05
6 *9:18 0.000459016
7 *9:10 0.000576116
8 *9:5 0.00218575
9 *190:DIODE *95:8 0
10 *9:5 *393:RESET_B 0
11 *9:5 *393:SET_B 0
12 *9:5 *406:D 0
13 *9:5 *407:D 0
14 *9:5 *10:14 0
15 *9:5 *32:572 0
16 *9:5 *94:15 0
17 *9:5 *94:24 0
18 *9:5 *110:8 0
19 *9:5 *116:8 0
20 *9:10 *427:TE 0
21 *9:10 *32:63 0
22 *9:18 *399:SET_B 0
23 *170:DIODE *9:5 0
24 *361:B *9:5 0
25 *8:9 *9:5 0
26 *8:11 *9:5 0
*RES
1 gpio_defaults[5] *9:5 36.6429 
2 *9:5 *9:10 16.3393 
3 *9:10 *372:B 9.72857 
4 *9:10 *9:18 0.535714 
5 *9:18 *190:DIODE 27.7821 
6 *9:18 *371:B 9.3 
7 *9:5 *192:DIODE 14.3357 
*END

*D_NET *10 0.00542666
*CONN
*P gpio_defaults[6] I
*I *374:B I *D sky130_fd_sc_hd__nand2b_2
*I *373:B I *D sky130_fd_sc_hd__or2_2
*I *196:DIODE I *D sky130_fd_sc_hd__diode_2
*I *194:DIODE I *D sky130_fd_sc_hd__diode_2
*CAP
1 gpio_defaults[6] 0.000855634
2 *374:B 0.000146098
3 *373:B 0
4 *196:DIODE 0.000168514
5 *194:DIODE 0.000277798
6 *10:27 0.000496218
7 *10:15 0.00154308
8 *10:14 0.00193931
9 *194:DIODE *119:7 0
10 *374:B *400:RESET_B 0
11 *374:B *11:16 0
12 *374:B *32:162 0
13 *374:B *32:168 0
14 *374:B *32:182 0
15 *10:14 *11:12 0
16 *10:14 *32:421 0
17 *10:14 *32:425 0
18 *10:14 *111:10 0
19 *10:15 *394:SET_B 0
20 *10:15 *400:D 0
21 *10:15 *432:A 0
22 *10:15 *32:40 0
23 *10:15 *32:42 0
24 *10:15 *32:48 0
25 *10:27 *32:162 0
26 *359:B *10:14 0
27 *6:23 *10:14 0
28 *9:5 *10:14 0
*RES
1 gpio_defaults[6] *10:14 28.1607 
2 *10:14 *10:15 24.7143 
3 *10:15 *194:DIODE 19.675 
4 *10:15 *10:27 8.32143 
5 *10:27 *196:DIODE 22.0679 
6 *10:27 *373:B 9.3 
7 *10:27 *374:B 12.3179 
*END

*D_NET *11 0.00557769
*CONN
*P gpio_defaults[7] I
*I *375:B I *D sky130_fd_sc_hd__or2_2
*I *198:DIODE I *D sky130_fd_sc_hd__diode_2
*I *200:DIODE I *D sky130_fd_sc_hd__diode_2
*I *376:B I *D sky130_fd_sc_hd__nand2b_2
*CAP
1 gpio_defaults[7] 0.00105398
2 *375:B 6.28885e-05
3 *198:DIODE 0
4 *200:DIODE 5.89503e-05
5 *376:B 4.62038e-05
6 *11:24 0.000285136
7 *11:19 0.000369771
8 *11:16 0.00144973
9 *11:12 0.00225103
10 *376:B *383:A 0
11 *376:B *32:103 0
12 *11:12 *395:SET_B 0
13 *11:12 *424:A 0
14 *11:12 *12:13 0
15 *11:16 *391:SET_B 0
16 *11:16 *410:D 0
17 *11:16 *439:A 0
18 *11:16 *12:13 0
19 *11:16 *32:182 0
20 *11:16 *32:190 0
21 *11:16 *96:14 0
22 *11:16 *96:16 0
23 *11:19 *397:SET_B 0
24 *11:19 *401:RESET_B 0
25 *11:19 *32:202 0
26 *11:19 *93:19 0
27 *11:24 *383:A 0
28 *11:24 *32:103 0
29 *11:24 *32:111 0
30 *11:24 *32:117 0
31 *11:24 *93:19 0
32 *156:DIODE *11:12 0
33 *374:B *11:16 0
34 *2:13 *11:16 0
35 *5:21 *11:12 0
36 *6:23 *11:12 0
37 *10:14 *11:12 0
*RES
1 gpio_defaults[7] *11:12 32.4286 
2 *11:12 *11:16 31.3214 
3 *11:16 *11:19 8.875 
4 *11:19 *11:24 8.42857 
5 *11:24 *376:B 10.2643 
6 *11:24 *200:DIODE 19.6393 
7 *11:19 *198:DIODE 13.8 
8 *11:16 *375:B 10.675 
*END

*D_NET *12 0.00585435
*CONN
*P gpio_defaults[8] I
*I *355:B I *D sky130_fd_sc_hd__or2_2
*I *158:DIODE I *D sky130_fd_sc_hd__diode_2
*I *356:B I *D sky130_fd_sc_hd__nand2b_2
*I *160:DIODE I *D sky130_fd_sc_hd__diode_2
*CAP
1 gpio_defaults[8] 0.00125241
2 *355:B 7.74342e-05
3 *158:DIODE 5.89306e-05
4 *356:B 0
5 *160:DIODE 0.000713164
6 *12:38 0.000961598
7 *12:13 0.00279081
8 *158:DIODE *419:TE_B 0
9 *158:DIODE *32:373 0
10 *160:DIODE *393:RESET_B 0
11 *160:DIODE *27:8 0
12 *160:DIODE *32:13 0
13 *160:DIODE *32:18 0
14 *355:B *347:A2 0
15 *355:B *32:373 0
16 *12:13 *377:A 0
17 *12:13 *390:SET_B 0
18 *12:13 *424:A 0
19 *12:13 *425:A 0
20 *12:13 *13:8 0
21 *12:13 *96:14 0
22 *12:13 *97:34 0
23 *12:13 *97:45 0
24 *12:38 *391:RESET_B 0
25 *12:38 *411:RESET_B 0
26 *12:38 *434:A 0
27 *12:38 *27:8 0
28 *12:38 *32:13 0
29 *172:DIODE *160:DIODE 0
30 *11:12 *12:13 0
31 *11:16 *12:13 0
*RES
1 gpio_defaults[8] *12:13 41.4643 
2 *12:13 *160:DIODE 24.2464 
3 *12:13 *356:B 9.3 
4 *12:13 *12:38 26.6964 
5 *12:38 *158:DIODE 19.6393 
6 *12:38 *355:B 10.9786 
*END

*D_NET *13 0.0042647
*CONN
*P gpio_defaults[9] I
*I *162:DIODE I *D sky130_fd_sc_hd__diode_2
*I *164:DIODE I *D sky130_fd_sc_hd__diode_2
*I *358:B I *D sky130_fd_sc_hd__nand2b_2
*I *357:B I *D sky130_fd_sc_hd__or2_2
*CAP
1 gpio_defaults[9] 0.00165151
2 *162:DIODE 8.28411e-05
3 *164:DIODE 2.56688e-05
4 *358:B 0.000237195
5 *357:B 2.0535e-05
6 *13:19 0.000335106
7 *13:18 0.000197437
8 *13:8 0.0017144
9 *358:B *159:DIODE 0
10 *358:B *347:B1 0
11 *358:B *32:13 0
12 *358:B *42:8 0
13 *13:8 *377:A 0
14 *13:8 *392:RESET_B 0
15 *13:8 *424:A 0
16 *13:8 *429:A 0
17 *13:8 *96:5 0
18 *13:8 *96:14 0
19 *13:8 *97:34 0
20 *13:8 *97:45 0
21 *13:18 *32:504 0
22 *13:19 *32:10 0
23 *13:19 *32:497 0
24 *13:19 *42:8 0
25 *2:13 *13:8 0
26 *3:21 *13:8 0
27 *12:13 *13:8 0
*RES
1 gpio_defaults[9] *13:8 40.2143 
2 *13:8 *357:B 9.72857 
3 *13:8 *13:18 5.44643 
4 *13:18 *13:19 1.64286 
5 *13:19 *358:B 19.0321 
6 *13:19 *164:DIODE 14.3357 
7 *13:18 *162:DIODE 15.7464 
*END

*D_NET *14 0.00386176
*CONN
*P mgmt_gpio_in O
*I *419:Z O *D sky130_fd_sc_hd__ebufn_2
*CAP
1 mgmt_gpio_in 0.00193088
2 *419:Z 0.00193088
3 mgmt_gpio_in one 0
4 mgmt_gpio_in zero 0
5 mgmt_gpio_in *146:DIODE 0
6 mgmt_gpio_in *148:DIODE 0
7 mgmt_gpio_in *348:B 0
8 mgmt_gpio_in *350:A1 0
9 mgmt_gpio_in *15:15 0
10 mgmt_gpio_in *15:28 0
11 mgmt_gpio_in *22:8 0
12 mgmt_gpio_in *23:14 0
13 mgmt_gpio_in *26:23 0
*RES
1 *419:Z mgmt_gpio_in 42.024 
*END

*D_NET *15 0.00481185
*CONN
*P mgmt_gpio_oeb I
*I *144:DIODE I *D sky130_fd_sc_hd__diode_2
*I *347:A2 I *D sky130_fd_sc_hd__a31o_2
*I *348:C I *D sky130_fd_sc_hd__and3b_2
*I *146:DIODE I *D sky130_fd_sc_hd__diode_2
*CAP
1 mgmt_gpio_oeb 0.00101131
2 *144:DIODE 0
3 *347:A2 0.000924943
4 *348:C 9.54023e-05
5 *146:DIODE 3.88545e-05
6 *15:28 0.00111477
7 *15:15 0.000430817
8 *15:7 0.00119575
9 *347:A2 *347:B1 0
10 *347:A2 *349:A1 0
11 *347:A2 *396:RESET_B 0
12 *347:A2 *397:RESET_B 0
13 *347:A2 *440:A 0
14 *347:A2 *23:33 0
15 *347:A2 *32:222 0
16 *347:A2 *32:333 0
17 *348:C *26:35 0
18 *15:7 one 0
19 *15:7 *16:7 0
20 *15:15 *349:A0 0
21 *15:28 *349:A0 0
22 mgmt_gpio_in *146:DIODE 0
23 mgmt_gpio_in *15:15 0
24 mgmt_gpio_in *15:28 0
25 *355:B *347:A2 0
26 *3:31 *347:A2 0
*RES
1 mgmt_gpio_oeb *15:7 7.07287 
2 *15:7 *146:DIODE 14.6839 
3 *15:7 *15:15 3.3125 
4 *15:15 *348:C 15.7911 
5 *15:15 *15:28 8.875 
6 *15:28 *347:A2 38.7107 
7 *15:28 *144:DIODE 9.3 
*END

*D_NET *16 0.00258283
*CONN
*P mgmt_gpio_out I
*I *349:A0 I *D sky130_fd_sc_hd__mux2_1
*I *147:DIODE I *D sky130_fd_sc_hd__diode_2
*CAP
1 mgmt_gpio_out 0.00103123
2 *349:A0 0.000248033
3 *147:DIODE 1.21519e-05
4 *16:7 0.00129141
5 *349:A0 *141:DIODE 0
6 *349:A0 *349:S 0
7 *349:A0 *23:33 0
8 *16:7 pad_gpio_ana_en 0
9 *15:7 *16:7 0
10 *15:15 *349:A0 0
11 *15:28 *349:A0 0
*RES
1 mgmt_gpio_out *16:7 7.14493 
2 *16:7 *147:DIODE 14.0768 
3 *16:7 *349:A0 19.3804 
*END

*D_NET *17 0.00237997
*CONN
*P one O
*I *426:HI O *D sky130_fd_sc_hd__conb_1
*CAP
1 one 0.00118999
2 *426:HI 0.00118999
3 one pad_gpio_ana_en 0
4 mgmt_gpio_in one 0
5 *15:7 one 0
*RES
1 *426:HI one 23.7944 
*END

*D_NET *18 0.0038139
*CONN
*P pad_gpio_ana_en O
*I *399:Q O *D sky130_fd_sc_hd__dfbbn_2
*CAP
1 pad_gpio_ana_en 0.00190695
2 *399:Q 0.00190695
3 pad_gpio_ana_en pad_gpio_ana_pol 0
4 pad_gpio_ana_en pad_gpio_ana_sel 0
5 pad_gpio_ana_en *93:19 0
6 one pad_gpio_ana_en 0
7 *16:7 pad_gpio_ana_en 0
*RES
1 *399:Q pad_gpio_ana_en 26.0145 
*END

*D_NET *19 0.00308716
*CONN
*P pad_gpio_ana_pol O
*I *401:Q O *D sky130_fd_sc_hd__dfbbn_2
*CAP
1 pad_gpio_ana_pol 0.00154358
2 *401:Q 0.00154358
3 pad_gpio_ana_pol pad_gpio_ana_sel 0
4 pad_gpio_ana_pol *32:202 0
5 pad_gpio_ana_en pad_gpio_ana_pol 0
*RES
1 *401:Q pad_gpio_ana_pol 23.7721 
*END

*D_NET *20 0.00383185
*CONN
*P pad_gpio_ana_sel O
*I *400:Q O *D sky130_fd_sc_hd__dfbbn_2
*CAP
1 pad_gpio_ana_sel 0.00191593
2 *400:Q 0.00191593
3 pad_gpio_ana_sel pad_gpio_dm[1] 0
4 pad_gpio_ana_sel *23:33 0
5 pad_gpio_ana_sel *93:19 0
6 pad_gpio_ana_en pad_gpio_ana_sel 0
7 pad_gpio_ana_pol pad_gpio_ana_sel 0
*RES
1 *400:Q pad_gpio_ana_sel 26.0709 
*END

*D_NET *21 0.00331978
*CONN
*P pad_gpio_dm[0] O
*I *396:Q O *D sky130_fd_sc_hd__dfbbn_2
*CAP
1 pad_gpio_dm[0] 1.64384e-05
2 *396:Q 0.00164345
3 *21:12 1.64384e-05
4 *21:8 0.00164345
5 *21:8 *40:7 0
*RES
1 *396:Q *21:8 48.2196 
2 *21:8 pad_gpio_dm[0] 3.41 
3 pad_gpio_dm[0] *21:12 0.0595333 
*END

*D_NET *22 0.00331182
*CONN
*P pad_gpio_dm[1] O
*I *348:B I *D sky130_fd_sc_hd__and3b_2
*I *397:Q O *D sky130_fd_sc_hd__dfbbn_2
*CAP
1 pad_gpio_dm[1] 0.000971554
2 *348:B 0.000466965
3 *397:Q 0.000217393
4 *22:8 0.00165591
5 pad_gpio_dm[1] pad_gpio_dm[2] 0
6 *348:B *26:35 0
7 *22:8 *26:35 0
8 mgmt_gpio_in *348:B 0
9 mgmt_gpio_in *22:8 0
10 pad_gpio_ana_sel pad_gpio_dm[1] 0
*RES
1 *397:Q *22:8 18.5411 
2 *22:8 *348:B 24.0768 
3 *22:8 pad_gpio_dm[1] 6.92873 
*END

*D_NET *23 0.005581
*CONN
*P pad_gpio_dm[2] O
*I *348:A_N I *D sky130_fd_sc_hd__and3b_2
*I *145:DIODE I *D sky130_fd_sc_hd__diode_2
*I *398:Q O *D sky130_fd_sc_hd__dfbbn_2
*CAP
1 pad_gpio_dm[2] 0.000945209
2 *348:A_N 0
3 *145:DIODE 9.65743e-05
4 *398:Q 0.00102205
5 *23:33 0.000823243
6 *23:14 0.00269393
7 pad_gpio_dm[2] pad_gpio_holdover 0
8 *23:14 *148:DIODE 0
9 *23:14 *346:B 0
10 *23:14 *26:23 0
11 *23:14 *42:8 0
12 *23:33 pad_gpio_holdover 0
13 *23:33 *141:DIODE 0
14 *23:33 *349:S 0
15 *23:33 *350:A1 0
16 *23:33 *396:RESET_B 0
17 *23:33 *26:35 0
18 mgmt_gpio_in *23:14 0
19 pad_gpio_ana_sel *23:33 0
20 pad_gpio_dm[1] pad_gpio_dm[2] 0
21 *347:A2 *23:33 0
22 *349:A0 *23:33 0
*RES
1 *398:Q *23:14 40.2904 
2 *23:14 *23:33 20.1691 
3 *23:33 *145:DIODE 20.4786 
4 *23:33 *348:A_N 9.3 
5 *23:14 pad_gpio_dm[2] 3.44667 
*END

*D_NET *24 0.00610023
*CONN
*P pad_gpio_holdover O
*I *390:Q O *D sky130_fd_sc_hd__dfbbn_2
*CAP
1 pad_gpio_holdover 0.00305011
2 *390:Q 0.00305011
3 pad_gpio_holdover pad_gpio_ib_mode_sel 0
4 pad_gpio_dm[2] pad_gpio_holdover 0
5 *2:13 pad_gpio_holdover 0
6 *23:33 pad_gpio_holdover 0
*RES
1 *390:Q pad_gpio_holdover 49.0932 
*END

*D_NET *25 0.00430161
*CONN
*P pad_gpio_ib_mode_sel O
*I *394:Q O *D sky130_fd_sc_hd__dfbbn_2
*CAP
1 pad_gpio_ib_mode_sel 0.0021508
2 *394:Q 0.0021508
3 pad_gpio_ib_mode_sel *419:A 0
4 pad_gpio_ib_mode_sel *26:5 0
5 pad_gpio_ib_mode_sel *114:5 0
6 pad_gpio_holdover pad_gpio_ib_mode_sel 0
7 *2:13 pad_gpio_ib_mode_sel 0
*RES
1 *394:Q pad_gpio_ib_mode_sel 29.3955 
*END

*D_NET *26 0.00503841
*CONN
*P pad_gpio_in I
*I *342:A I *D sky130_fd_sc_hd__inv_2
*I *217:DIODE I *D sky130_fd_sc_hd__diode_2
*I *141:DIODE I *D sky130_fd_sc_hd__diode_2
*I *419:A I *D sky130_fd_sc_hd__ebufn_2
*CAP
1 pad_gpio_in 0.000965087
2 *342:A 0
3 *217:DIODE 6.20329e-05
4 *141:DIODE 0.000144293
5 *419:A 0.000184277
6 *26:35 0.00106127
7 *26:23 0.00116352
8 *26:5 0.00145794
9 *141:DIODE zero 0
10 *26:23 *148:DIODE 0
11 *26:35 *163:DIODE 0
12 *26:35 *396:RESET_B 0
13 *26:35 *396:SET_B 0
14 *26:35 *32:222 0
15 mgmt_gpio_in *26:23 0
16 pad_gpio_ib_mode_sel *419:A 0
17 pad_gpio_ib_mode_sel *26:5 0
18 *348:B *26:35 0
19 *348:C *26:35 0
20 *349:A0 *141:DIODE 0
21 *3:31 *26:35 0
22 *22:8 *26:35 0
23 *23:14 *26:23 0
24 *23:33 *141:DIODE 0
25 *23:33 *26:35 0
*RES
1 pad_gpio_in *26:5 3.51873 
2 *26:5 *419:A 18.1103 
3 *26:5 *26:23 14.8296 
4 *26:23 *26:35 27.6607 
5 *26:35 *141:DIODE 21.4964 
6 *26:35 *217:DIODE 10.6571 
7 *26:23 *342:A 9.3 
*END

*D_NET *27 0.0065688
*CONN
*P pad_gpio_inenb O
*I *345:A_N I *D sky130_fd_sc_hd__nand2b_2
*I *142:DIODE I *D sky130_fd_sc_hd__diode_2
*I *393:Q O *D sky130_fd_sc_hd__dfbbn_2
*CAP
1 pad_gpio_inenb 0.00197205
2 *345:A_N 0.000316582
3 *142:DIODE 0
4 *393:Q 0.000480704
5 *27:32 1.64384e-05
6 *27:15 0.00247068
7 *27:8 0.00131235
8 pad_gpio_inenb *419:TE_B 0
9 pad_gpio_inenb *440:A 0
10 pad_gpio_inenb *29:7 0
11 pad_gpio_inenb *32:373 0
12 *345:A_N *391:CLK_N 0
13 *27:8 *414:D 0
14 *27:8 *32:13 0
15 *27:8 *108:7 0
16 *27:15 *414:D 0
17 *27:15 *440:A 0
18 *27:15 *32:312 0
19 *27:15 *32:322 0
20 *27:32 *28:14 0
21 *160:DIODE *27:8 0
22 *12:38 *27:8 0
*RES
1 *393:Q *27:8 24.1214 
2 *27:8 *27:15 15.5 
3 *27:15 *142:DIODE 9.3 
4 *27:15 pad_gpio_inenb 49.0618 
5 pad_gpio_inenb *27:32 0.0595333 
6 *27:8 *345:A_N 20.4071 
*END

*D_NET *28 0.00322351
*CONN
*P pad_gpio_out O
*I *350:X O *D sky130_fd_sc_hd__mux2_1
*CAP
1 pad_gpio_out 1.64384e-05
2 *350:X 0.00159532
3 *28:14 1.64384e-05
4 *28:10 0.00159532
5 *28:10 *29:7 0
6 *28:10 *40:16 0
7 *28:14 *31:16 0
8 *27:32 *28:14 0
*RES
1 *350:X *28:10 47.1661 
2 *28:10 pad_gpio_out 3.41 
3 pad_gpio_out *28:14 0.0595333 
*END

*D_NET *29 0.00468673
*CONN
*P pad_gpio_outenb O
*I *347:X O *D sky130_fd_sc_hd__a31o_2
*CAP
1 pad_gpio_outenb 0.000172643
2 *347:X 0
3 *29:7 0.00234337
4 *29:4 0.00217072
5 *29:7 *40:16 0
6 pad_gpio_inenb *29:7 0
7 *28:10 *29:7 0
*RES
1 *347:X *29:4 9.3 
2 *29:4 *29:7 49.8036 
3 *29:7 pad_gpio_outenb 7.32964 
*END

*D_NET *30 0.00305866
*CONN
*P pad_gpio_slow_sel O
*I *391:Q O *D sky130_fd_sc_hd__dfbbn_2
*CAP
1 pad_gpio_slow_sel 0.00152933
2 *391:Q 0.00152933
3 pad_gpio_slow_sel *219:DIODE 0
4 pad_gpio_slow_sel *378:A 0
5 pad_gpio_slow_sel *414:D 0
6 pad_gpio_slow_sel *32:7 0
*RES
1 *391:Q pad_gpio_slow_sel 24.6452 
*END

*D_NET *31 0.0036014
*CONN
*P pad_gpio_vtrip_sel O
*I *392:Q O *D sky130_fd_sc_hd__dfbbn_2
*CAP
1 pad_gpio_vtrip_sel 4.19613e-05
2 *392:Q 0.00175874
3 *31:16 1.64384e-05
4 *31:9 0.00178426
5 pad_gpio_vtrip_sel user_gpio_in 0
6 *31:9 *347:B1 0
7 *31:9 *34:13 0
8 *31:9 *34:19 0
9 *28:14 *31:16 0
*RES
1 *392:Q *31:9 46.0679 
2 *31:9 pad_gpio_vtrip_sel 8.49036 
3 pad_gpio_vtrip_sel *31:16 0.0595333 
*END

*D_NET *32 0.0321377
*CONN
*P resetn I
*I *357:A I *D sky130_fd_sc_hd__or2_2
*I *351:A I *D sky130_fd_sc_hd__or2_2
*I *216:DIODE I *D sky130_fd_sc_hd__diode_2
*I *187:DIODE I *D sky130_fd_sc_hd__diode_2
*I *185:DIODE I *D sky130_fd_sc_hd__diode_2
*I *415:RESET_B I *D sky130_fd_sc_hd__dfrtp_2
*I *369:A I *D sky130_fd_sc_hd__or2_2
*I *161:DIODE I *D sky130_fd_sc_hd__diode_2
*I *214:DIODE I *D sky130_fd_sc_hd__diode_2
*I *370:A_N I *D sky130_fd_sc_hd__nand2b_2
*I *215:DIODE I *D sky130_fd_sc_hd__diode_2
*I *149:DIODE I *D sky130_fd_sc_hd__diode_2
*I *151:DIODE I *D sky130_fd_sc_hd__diode_2
*I *173:DIODE I *D sky130_fd_sc_hd__diode_2
*I *352:A_N I *D sky130_fd_sc_hd__nand2b_2
*I *363:A I *D sky130_fd_sc_hd__or2_2
*I *155:DIODE I *D sky130_fd_sc_hd__diode_2
*I *354:A_N I *D sky130_fd_sc_hd__nand2b_2
*I *364:A_N I *D sky130_fd_sc_hd__nand2b_2
*I *175:DIODE I *D sky130_fd_sc_hd__diode_2