*SPEF "ieee 1481-1999"
*DESIGN "gpio_control_block"
*DATE "11:11:11 Fri 11 11, 1111"
*VENDOR "OpenRCX"
*PROGRAM "Parallel Extraction"
*VERSION "1.0"
*DESIGN_FLOW "NAME_SCOPE LOCAL" "PIN_CAP NONE"
*DIVIDER /
*DELIMITER :
*BUS_DELIMITER []
*T_UNIT 1 NS
*C_UNIT 1 PF
*R_UNIT 1 OHM
*L_UNIT 1 HENRY

*NAME_MAP
*1 gpio_defaults[0]
*2 gpio_defaults[10]
*3 gpio_defaults[11]
*4 gpio_defaults[12]
*5 gpio_defaults[1]
*6 gpio_defaults[2]
*7 gpio_defaults[3]
*8 gpio_defaults[4]
*9 gpio_defaults[5]
*10 gpio_defaults[6]
*11 gpio_defaults[7]
*12 gpio_defaults[8]
*13 gpio_defaults[9]
*14 mgmt_gpio_in
*15 mgmt_gpio_oeb
*16 mgmt_gpio_out
*17 one
*18 pad_gpio_ana_en
*19 pad_gpio_ana_pol
*20 pad_gpio_ana_sel
*21 pad_gpio_dm[0]
*22 pad_gpio_dm[1]
*23 pad_gpio_dm[2]
*24 pad_gpio_holdover
*25 pad_gpio_ib_mode_sel
*26 pad_gpio_in
*27 pad_gpio_inenb
*28 pad_gpio_out
*29 pad_gpio_outenb
*30 pad_gpio_slow_sel
*31 pad_gpio_vtrip_sel
*32 resetn
*33 resetn_out
*34 serial_clock
*35 serial_clock_out
*36 serial_data_in
*37 serial_data_out
*38 serial_load
*39 serial_load_out
*40 user_gpio_in
*41 user_gpio_oeb
*42 user_gpio_out
*47 zero
*48 _000_
*49 _001_
*50 _002_
*51 _003_
*52 _004_
*53 _005_
*54 _006_
*55 _007_
*56 _008_
*57 _009_
*58 _010_
*59 _011_
*60 _012_
*61 _013_
*62 _014_
*63 _015_
*64 _016_
*65 _017_
*66 _018_
*67 _019_
*68 _020_
*69 _021_
*70 _022_
*71 _023_
*72 _024_
*73 _025_
*74 _026_
*75 _027_
*76 _042_
*77 _043_
*78 _044_
*79 _045_
*80 _046_
*81 _047_
*82 _048_
*83 _049_
*84 _050_
*85 _051_
*86 _052_
*87 _053_
*88 _054_
*89 _055_
*90 _056_
*91 _057_
*92 _058_
*93 _059_
*94 clknet_0_serial_clock
*95 clknet_0_serial_load
*96 clknet_1_0__leaf_serial_clock
*97 clknet_1_0__leaf_serial_load
*98 gpio_logic1
*99 gpio_outenb
*100 mgmt_ena
*101 net1
*102 net10
*103 net11
*104 net12
*105 net13
*106 net14
*107 net15
*108 net16
*109 net17
*110 net18
*111 net19
*112 net2
*113 net20
*114 net21
*115 net22
*116 net23
*117 net24
*118 net25
*119 net26
*120 net27
*121 net28
*122 net29
*123 net3
*124 net30
*125 net31
*126 net32
*127 net33
*128 net34
*129 net35
*130 net36
*131 net37
*132 net38
*133 net39
*134 net4
*135 net40
*136 net41
*137 net42
*138 net43
*139 net44
*140 net45
*141 net46
*142 net47
*143 net48
*144 net49
*145 net5
*146 net50
*147 net51
*148 net52
*149 net53
*150 net54
*151 net55
*152 net6
*153 net7
*154 net8
*155 net9
*156 one_buffered
*157 serial_clock_out_buffered
*158 serial_load_out_buffered
*159 shift_register\[0\]
*160 shift_register\[10\]
*161 shift_register\[11\]
*162 shift_register\[12\]
*163 shift_register\[1\]
*164 shift_register\[2\]
*165 shift_register\[3\]
*166 shift_register\[4\]
*167 shift_register\[5\]
*168 shift_register\[6\]
*169 shift_register\[7\]
*170 shift_register\[8\]
*171 shift_register\[9\]
*172 zero_buffered
*173 ANTENNA__065__A0
*174 ANTENNA__066__B
*175 ANTENNA__071__B
*176 ANTENNA__072__B
*177 ANTENNA__073__A
*178 ANTENNA__073__B
*179 ANTENNA__074__A_N
*180 ANTENNA__074__B
*181 ANTENNA__075__B
*182 ANTENNA__076__B
*183 ANTENNA__077__B
*184 ANTENNA__078__B
*185 ANTENNA__079__A
*186 ANTENNA__079__B
*187 ANTENNA__080__A_N
*188 ANTENNA__080__B
*189 ANTENNA__081__B
*190 ANTENNA__082__B
*191 ANTENNA__083__A
*192 ANTENNA__083__B
*193 ANTENNA__084__A_N
*194 ANTENNA__084__B
*195 ANTENNA__085__B
*196 ANTENNA__086__B
*197 ANTENNA__087__B
*198 ANTENNA__088__B
*199 ANTENNA__089__B
*200 ANTENNA__090__B
*201 ANTENNA__091__B
*202 ANTENNA__092__B
*203 ANTENNA__093__B
*204 ANTENNA__094__B
*205 ANTENNA__095__B
*206 ANTENNA__096__B
*207 ANTENNA__125__RESET_B
*208 ANTENNA_clkbuf_0_serial_clock_A
*209 ANTENNA_clkbuf_0_serial_load_A
*210 ANTENNA_input1_A
*211 ANTENNA_input2_A
*212 ANTENNA_input3_A
*213 ANTENNA_input4_A
*214 ANTENNA_input5_A
*215 FILLER_0_3
*216 FILLER_0_31
*217 FILLER_0_57
*218 FILLER_0_91
*219 FILLER_10_85
*220 FILLER_14_98
*221 FILLER_17_98
*222 FILLER_19_55
*223 FILLER_19_70
*224 FILLER_1_32
*225 FILLER_1_98
*226 FILLER_20_98
*227 FILLER_2_42
*228 FILLER_2_48
*229 FILLER_2_52
*230 FILLER_3_48
*231 FILLER_3_80
*232 FILLER_5_56
*233 FILLER_5_98
*234 FILLER_7_98
*235 FILLER_8_52
*236 FILLER_8_98
*237 PHY_0
*238 PHY_1
*239 PHY_10
*240 PHY_11
*241 PHY_12
*242 PHY_13
*243 PHY_14
*244 PHY_15
*245 PHY_16
*246 PHY_17
*247 PHY_18
*248 PHY_19
*249 PHY_2
*250 PHY_20
*251 PHY_21
*252 PHY_22
*253 PHY_23
*254 PHY_24
*255 PHY_25
*256 PHY_26
*257 PHY_27
*258 PHY_28
*259 PHY_29
*260 PHY_3
*261 PHY_30
*262 PHY_31
*263 PHY_32
*264 PHY_33
*265 PHY_34
*266 PHY_35
*267 PHY_36
*268 PHY_37
*269 PHY_38
*270 PHY_39
*271 PHY_4
*272 PHY_40
*273 PHY_41
*274 PHY_5
*275 PHY_6
*276 PHY_7
*277 PHY_8
*278 PHY_9
*279 TAP_42
*280 TAP_43
*281 TAP_44
*282 TAP_45
*283 TAP_46
*284 TAP_47
*285 TAP_48
*286 TAP_49
*287 TAP_50
*288 TAP_51
*289 TAP_52
*290 TAP_53
*291 TAP_54
*292 TAP_55
*293 TAP_56
*294 TAP_57
*295 TAP_58
*296 TAP_59
*297 TAP_60
*298 TAP_61
*299 TAP_62
*300 TAP_63
*301 TAP_64
*302 TAP_65
*303 TAP_66
*304 TAP_67
*305 TAP_68
*306 TAP_69
*307 TAP_70
*308 TAP_71
*309 TAP_72
*310 TAP_73
*311 _060_
*312 _061__1
*313 _062__14
*314 _063_
*315 _064_
*316 _065_
*317 _066_
*318 _067_
*319 _068_
*320 _069_
*321 _070_
*322 _071_
*323 _072_
*324 _073_
*325 _074_
*326 _075_
*327 _076_
*328 _077_
*329 _078_
*330 _079_
*331 _080_
*332 _081_
*333 _082_
*334 _083_
*335 _084_
*336 _085_
*337 _086_
*338 _087_
*339 _088_
*340 _089_
*341 _090_
*342 _091_
*343 _092_
*344 _093_
*345 _094_
*346 _095_
*347 _096_
*348 _097__2
*349 _098__3
*350 _099__4
*351 _100__5
*352 _101__6
*353 _102__7
*354 _103__8
*355 _104__9
*356 _105__10
*357 _106__11
*358 _107__12
*359 _108__13
*360 _109_
*361 _110_
*362 _111_
*363 _112_
*364 _113_
*365 _114_
*366 _115_
*367 _116_
*368 _117_
*369 _118_
*370 _119_
*371 _120_
*372 _121_
*373 _122_
*374 _123_
*375 _124_
*376 _125_
*377 _126_
*378 _127_
*379 _128_
*380 _129_
*381 _130_
*382 _131_
*383 _132_
*384 _133_
*385 _134_
*386 _135_
*387 _136_
*388 _139_
*389 clkbuf_0_serial_clock
*390 clkbuf_0_serial_load
*391 clkbuf_1_0__f_serial_clock
*392 clkbuf_1_0__f_serial_load
*393 clkbuf_1_1__f_serial_clock
*394 clkbuf_1_1__f_serial_load
*395 const_source
*396 fanout21
*397 fanout22
*398 fanout23
*399 fanout24
*400 fanout25
*401 fanout26
*402 fanout27
*403 fanout28
*404 gpio_in_buf
*405 gpio_logic_high
*406 hold1
*407 hold10
*408 hold11
*409 hold12
*410 hold13
*411 hold2
*412 hold3
*413 hold4
*414 hold5
*415 hold6
*416 hold7
*417 hold8
*418 hold9
*419 input1
*420 input2
*421 input3
*422 input4
*423 input5
*424 one_buffer
*425 output10
*426 output11
*427 output12
*428 output13
*429 output14
*430 output15
*431 output16
*432 output17
*433 output18
*434 output19
*435 output20
*436 output6
*437 output7
*438 output8
*439 output9
*440 serial_clock_out_buffer
*441 serial_load_out_buffer
*442 zero_buffer

*PORTS
gpio_defaults[0] I
gpio_defaults[10] I
gpio_defaults[11] I
gpio_defaults[12] I
gpio_defaults[1] I
gpio_defaults[2] I
gpio_defaults[3] I
gpio_defaults[4] I
gpio_defaults[5] I
gpio_defaults[6] I
gpio_defaults[7] I
gpio_defaults[8] I
gpio_defaults[9] I
mgmt_gpio_in O
mgmt_gpio_oeb I
mgmt_gpio_out I
one O
pad_gpio_ana_en O
pad_gpio_ana_pol O
pad_gpio_ana_sel O
pad_gpio_dm[0] O
pad_gpio_dm[1] O
pad_gpio_dm[2] O
pad_gpio_holdover O
pad_gpio_ib_mode_sel O
pad_gpio_in I
pad_gpio_inenb O
pad_gpio_out O
pad_gpio_outenb O
pad_gpio_slow_sel O
pad_gpio_vtrip_sel O
resetn I
resetn_out O
serial_clock I
serial_clock_out O
serial_data_in I
serial_data_out O
serial_load I
serial_load_out O
user_gpio_in O
user_gpio_oeb I
user_gpio_out I
zero O

*D_NET *1 0.019232
*CONN
*P gpio_defaults[0] I
*I *176:DIODE I *D sky130_fd_sc_hd__diode_2
*I *323:B I *D sky130_fd_sc_hd__nand2b_2
*I *322:B I *D sky130_fd_sc_hd__or2_0
*I *175:DIODE I *D sky130_fd_sc_hd__diode_2
*CAP
1 gpio_defaults[0] 0.000428777
2 *176:DIODE 0.00163972
3 *323:B 1.4129e-05
4 *322:B 0.000142334
5 *175:DIODE 0.00021296
6 *1:45 0.00462723
7 *1:23 0.00471963
8 *1:5 0.00224565
9 *175:DIODE *116:48 3.70431e-05
10 *176:DIODE pad_gpio_dm[1] 7.09841e-05
11 *176:DIODE pad_gpio_out 7.13972e-05
12 *176:DIODE *315:A 6.08467e-05
13 *176:DIODE *315:B 3.38594e-05
14 *176:DIODE *316:A1 3.49685e-05
15 *176:DIODE *367:RESET_B 0.000142069
16 *176:DIODE *425:A 3.02163e-05
17 *176:DIODE *42:28 3.84567e-05
18 *176:DIODE *78:22 4.87242e-05
19 *176:DIODE *120:52 3.99086e-06
20 *322:B *360:RESET_B 0
21 *322:B *412:A 6.71638e-05
22 *322:B *427:A 7.02839e-06
23 *323:B *106:29 1.91246e-05
24 *1:5 *5:16 0
25 *1:5 *116:48 0.000179614
26 *1:23 serial_data_out 0.000208528
27 *1:23 *373:CLK 1.66771e-05
28 *1:23 *435:A 0.000803004
29 *1:23 *8:11 7.64213e-06
30 *1:23 *38:8 0.00200886
31 *1:23 *116:15 0.00034853
32 *1:23 *126:10 0.000131351
33 *1:45 pad_gpio_dm[1] 8.87803e-06
34 *1:45 *322:A 0
35 *1:45 *360:SET_B 0
36 *1:45 *368:CLK_N 4.34701e-05
37 *1:45 *385:D 0
38 *1:45 *12:18 1.93857e-05
39 *1:45 *13:28 6.21462e-05
40 *1:45 *38:8 0.000371112
41 *1:45 *116:15 0.000326505
*RES
1 gpio_defaults[0] *1:5 8.10714 
2 *1:5 *175:DIODE 16.4964 
3 *1:5 *1:23 26.6866 
4 *1:23 *322:B 19.9154 
5 *1:23 *1:45 23.0433 
6 *1:45 *323:B 17.4868 
7 *1:45 *176:DIODE 28.815 
*END

*D_NET *2 0.0178764
*CONN
*P gpio_defaults[10] I
*I *336:B I *D sky130_fd_sc_hd__or2_0
*I *195:DIODE I *D sky130_fd_sc_hd__diode_2
*I *196:DIODE I *D sky130_fd_sc_hd__diode_2
*I *337:B I *D sky130_fd_sc_hd__nand2b_2
*CAP
1 gpio_defaults[10] 0.00246996
2 *336:B 0
3 *195:DIODE 0.000648536
4 *196:DIODE 0
5 *337:B 0
6 *2:38 0.0016853
7 *2:26 0.00113193
8 *2:21 0.00256513
9 *195:DIODE *198:DIODE 0.000317503
10 *195:DIODE *210:DIODE 0.00106747
11 *195:DIODE *212:DIODE 6.27718e-05
12 *195:DIODE *311:A 0.000114271
13 *195:DIODE *320:A1 0.00012136
14 *195:DIODE *442:A 0.000606218
15 *195:DIODE *18:5 0.000191084
16 *195:DIODE *120:52 2.86829e-05
17 *2:21 pad_gpio_vtrip_sel 7.78727e-05
18 *2:21 resetn_out 0.000142113
19 *2:21 *189:DIODE 0.000243019
20 *2:21 *364:RESET_B 0.00036264
21 *2:21 *365:RESET_B 0.0001045
22 *2:21 *373:RESET_B 5.79479e-06
23 *2:21 *3:5 0
24 *2:21 *8:39 2.99671e-05
25 *2:21 *12:18 4.57907e-05
26 *2:21 *13:9 0
27 *2:21 *13:45 3.41229e-05
28 *2:21 *13:66 0.000545875
29 *2:21 *54:16 0.000455566
30 *2:21 *102:16 0.000583342
31 *2:21 *114:8 0.000219995
32 *2:21 *114:15 0.000144753
33 *2:21 *132:6 0.000361808
34 *2:21 *145:28 0.00015409
35 *2:26 *13:66 6.27718e-05
36 *2:26 *120:32 0.000154145
37 *2:26 *120:52 9.52298e-05
38 *2:38 pad_gpio_ana_pol 0
39 *2:38 *36:8 0.000256285
40 *2:38 *101:8 0.000485585
41 *2:38 *118:8 0.000300318
42 *2:38 *118:19 0.00116145
43 *2:38 *120:52 0.00083912
*RES
1 gpio_defaults[10] *2:21 40.9824 
2 *2:21 *337:B 9.3 
3 *2:21 *2:26 2.17857 
4 *2:26 *196:DIODE 9.3 
5 *2:26 *2:38 37.7679 
6 *2:38 *195:DIODE 38.3 
7 *2:38 *336:B 9.3 
*END

*D_NET *3 0.0180651
*CONN
*P gpio_defaults[11] I
*I *338:B I *D sky130_fd_sc_hd__or2_0
*I *339:B I *D sky130_fd_sc_hd__nand2b_2
*I *197:DIODE I *D sky130_fd_sc_hd__diode_2
*I *198:DIODE I *D sky130_fd_sc_hd__diode_2
*CAP
1 gpio_defaults[11] 5.43606e-05
2 *338:B 0.00156791
3 *339:B 0.000575154
4 *197:DIODE 8.47319e-05
5 *198:DIODE 0.000938231
6 *3:33 0.00139749
7 *3:27 0.00141064
8 *3:22 0.00224128
9 *3:5 0.0034026
10 *197:DIODE *214:DIODE 1.87146e-05
11 *198:DIODE *436:A 6.46815e-05
12 *198:DIODE *438:A 2.39545e-05
13 *198:DIODE *442:A 0.000318331
14 *338:B *42:10 0.000118002
15 *339:B *339:A_N 9.9774e-06
16 *339:B *401:A 2.52984e-05
17 *339:B *436:A 0.000157107
18 *339:B *35:13 1.35773e-05
19 *339:B *67:10 6.36477e-05
20 *339:B *119:29 0.00113671
21 *3:5 *4:9 0
22 *3:22 *360:SET_B 0.00073007
23 *3:22 *363:CLK_N 0.000304129
24 *3:22 *372:SET_B 8.70662e-06
25 *3:22 *374:D 0.00013408
26 *3:22 *376:RESET_B 0.000340811
27 *3:22 *383:D 0.000158244
28 *3:22 *411:A 0.000282925
29 *3:22 *4:9 0
30 *3:22 *4:21 6.39653e-05
31 *3:22 *32:43 5.88253e-05
32 *3:22 *116:25 0
33 *3:22 *132:6 8.70662e-06
34 *3:22 *140:8 0.000167294
35 *3:22 *145:28 0.000206598
36 *3:22 *157:31 5.65111e-05
37 *3:22 *157:40 6.7262e-05
38 *3:27 *371:RESET_B 0.000404483
39 *3:27 *388:TE_B 6.84074e-06
40 *3:27 *428:A 6.96741e-05
41 *3:27 *438:A 0.00032603
42 *3:27 *4:21 0.000444524
43 *3:33 *438:A 0.000285475
44 *195:DIODE *198:DIODE 0.000317503
45 *2:21 *3:5 0
*RES
1 gpio_defaults[11] *3:5 1.125 
2 *3:5 *3:22 48.022 
3 *3:22 *3:27 11.8661 
4 *3:27 *3:33 7.26786 
5 *3:33 *198:DIODE 32.0321 
6 *3:33 *197:DIODE 14.7464 
7 *3:27 *339:B 25.8536 
8 *3:5 *338:B 40.175 
*END

*D_NET *4 0.0138075
*CONN
*P gpio_defaults[12] I
*I *340:B I *D sky130_fd_sc_hd__or2_0
*I *341:B I *D sky130_fd_sc_hd__nand2b_2
*I *199:DIODE I *D sky130_fd_sc_hd__diode_2
*I *200:DIODE I *D sky130_fd_sc_hd__diode_2
*CAP
1 gpio_defaults[12] 0.000575814
2 *340:B 0.00122787
3 *341:B 0.000478138
4 *199:DIODE 0
5 *200:DIODE 1.50285e-05
6 *4:22 0.000279217
7 *4:21 0.00215326
8 *4:9 0.00321461
9 *200:DIODE *185:DIODE 0.000114271
10 *200:DIODE *186:DIODE 5.31465e-05
11 *340:B *182:DIODE 0.000118017
12 *340:B *326:A 0.000227378
13 *340:B *329:B 0.000107496
14 *340:B *385:CLK 5.04829e-06
15 *340:B *42:10 0.000118017
16 *340:B *106:13 2.12436e-05
17 *340:B *118:41 0.000265786
18 *341:B pad_gpio_dm[0] 0.000164686
19 *341:B *400:A 0.000117376
20 *341:B *439:A 0.000111352
21 *4:9 *376:RESET_B 0.000207134
22 *4:9 *427:A 7.43121e-05
23 *4:9 *116:25 0.000388109
24 *4:9 *116:39 5.33048e-05
25 *4:9 *164:16 0.000309515
26 *4:21 pad_gpio_dm[1] 0.000107844
27 *4:21 *371:RESET_B 1.42851e-05
28 *4:21 *376:RESET_B 8.18541e-05
29 *4:21 *403:A 0.000143295
30 *4:21 *409:A 0.000319562
31 *4:21 *427:A 0.00132771
32 *4:21 *436:A 0.000161626
33 *4:21 *438:A 0.000313144
34 *4:21 *158:70 0.000248457
35 *4:22 *185:DIODE 0.000151001
36 *4:22 *186:DIODE 3.00829e-05
37 *3:5 *4:9 0
38 *3:22 *4:9 0
39 *3:22 *4:21 6.39653e-05
40 *3:27 *4:21 0.000444524
*RES
1 gpio_defaults[12] *4:9 12.4107 
2 *4:9 *4:21 39.5536 
3 *4:21 *4:22 4.64286 
4 *4:22 *200:DIODE 10.2464 
5 *4:22 *199:DIODE 9.3 
6 *4:21 *341:B 19.0143 
7 *4:9 *340:B 37.7107 
*END

*D_NET *5 0.0114954
*CONN
*P gpio_defaults[1] I
*I *335:B I *D sky130_fd_sc_hd__nand2b_2
*I *194:DIODE I *D sky130_fd_sc_hd__diode_2
*I *192:DIODE I *D sky130_fd_sc_hd__diode_2
*I *334:B I *D sky130_fd_sc_hd__or2_0
*CAP
1 gpio_defaults[1] 0.000648378
2 *335:B 0
3 *194:DIODE 0
4 *192:DIODE 8.54853e-05
5 *334:B 0
6 *5:33 0.00019102
7 *5:29 0.00167321
8 *5:16 0.00221606
9 *192:DIODE *61:11 7.94337e-06
10 *5:16 *324:B 0.000160942
11 *5:16 *389:A 4.88095e-05
12 *5:16 *6:7 0
13 *5:16 *6:19 0.000196447
14 *5:16 *7:11 4.4426e-06
15 *5:16 *94:8 6.27782e-05
16 *5:16 *116:43 0.000621616
17 *5:16 *116:48 3.52873e-06
18 *5:29 *204:DIODE 0.000832864
19 *5:29 *313:A 0.00121064
20 *5:29 *364:D 1.36494e-05
21 *5:29 *365:CLK_N 7.5848e-05
22 *5:29 *371:CLK_N 0.000462422
23 *5:29 *376:D 0.000689683
24 *5:29 *377:D 7.53109e-05
25 *5:29 *389:A 1.65872e-05
26 *5:29 *440:A 1.75024e-05
27 *5:29 *9:14 0.00131296
28 *5:29 *10:7 3.10514e-05
29 *5:29 *10:20 0.000306455
30 *5:29 *96:19 0.000346414
31 *5:29 *116:43 6.08467e-05
32 *5:29 *141:16 8.50222e-05
33 *5:29 *143:10 2.75989e-05
34 *5:33 *313:A 9.89388e-06
35 *1:5 *5:16 0
*RES
1 gpio_defaults[1] *5:16 18.5357 
2 *5:16 *334:B 9.3 
3 *5:16 *5:29 49.5357 
4 *5:29 *5:33 6.14286 
5 *5:33 *192:DIODE 10.2464 
6 *5:33 *194:DIODE 9.3 
7 *5:29 *335:B 13.8 
*END

*D_NET *6 0.00856797
*CONN
*P gpio_defaults[2] I
*I *180:DIODE I *D sky130_fd_sc_hd__diode_2
*I *178:DIODE I *D sky130_fd_sc_hd__diode_2
*I *325:B I *D sky130_fd_sc_hd__nand2b_2
*I *324:B I *D sky130_fd_sc_hd__or2_0
*CAP
1 gpio_defaults[2] 0.000155115
2 *180:DIODE 7.65937e-05
3 *178:DIODE 0
4 *325:B 2.4116e-05
5 *324:B 2.75385e-05
6 *6:36 9.6125e-05
7 *6:28 0.000919262
8 *6:19 0.00245097
9 *6:7 0.001758
10 *180:DIODE *53:10 0.000358585
11 *180:DIODE *114:55 0.00010462
12 *324:B *116:43 0.00015901
13 *325:B *116:65 0
14 *325:B *116:69 0
15 *6:7 *7:7 0
16 *6:7 *7:11 7.40248e-05
17 *6:19 serial_data_out 2.75652e-05
18 *6:19 *378:RESET_B 0.000185126
19 *6:19 *391:A 0.000122114
20 *6:19 *9:35 2.67514e-05
21 *6:19 *94:8 0.000673015
22 *6:19 *114:83 0.000113295
23 *6:19 *116:43 0.000209636
24 *6:19 *142:10 0.000133034
25 *6:28 *333:B 0.000111189
26 *6:28 *53:10 6.64392e-05
27 *6:28 *114:55 8.57749e-05
28 *6:28 *116:65 1.63255e-05
29 *6:36 *53:10 0.000167438
30 *6:36 *114:55 6.89158e-05
31 *5:16 *324:B 0.000160942
32 *5:16 *6:7 0
33 *5:16 *6:19 0.000196447
*RES
1 gpio_defaults[2] *6:7 7.44643 
2 *6:7 *324:B 10.6571 
3 *6:7 *6:19 38.8036 
4 *6:19 *6:28 23.0357 
5 *6:28 *325:B 9.72857 
6 *6:28 *6:36 1.35714 
7 *6:36 *178:DIODE 9.3 
8 *6:36 *180:DIODE 12.3 
*END

*D_NET *7 0.0138122
*CONN
*P gpio_defaults[3] I
*I *330:B I *D sky130_fd_sc_hd__or2_0
*I *331:B I *D sky130_fd_sc_hd__nand2b_2
*I *186:DIODE I *D sky130_fd_sc_hd__diode_2
*I *188:DIODE I *D sky130_fd_sc_hd__diode_2
*CAP
1 gpio_defaults[3] 0.000118061
2 *330:B 0.00139983
3 *331:B 0
4 *186:DIODE 0.00070585
5 *188:DIODE 0.000278787
6 *7:19 0.002539
7 *7:11 0.00237341
8 *7:7 0.00233694
9 *186:DIODE *185:DIODE 1.00901e-05
10 *186:DIODE *440:A 0.000163168
11 *186:DIODE *34:21 2.29454e-05
12 *186:DIODE *35:10 0.000219249
13 *188:DIODE *8:19 0.000205897
14 *188:DIODE *61:11 8.85947e-05
15 *330:B *33:18 2.42295e-05
16 *330:B *116:39 0.00124986
17 *330:B *116:43 0.000348103
18 *7:7 *8:11 0
19 *7:11 *414:A 0.000138453
20 *7:11 *435:A 6.00269e-05
21 *7:11 *94:8 0.000189637
22 *7:11 *116:43 0.000134717
23 *7:11 *129:15 0.000115134
24 *7:19 *206:DIODE 2.41274e-06
25 *7:19 *391:A 8.06761e-05
26 *7:19 *8:19 0.000372106
27 *7:19 *94:8 0.000205148
28 *7:19 *98:17 5.37732e-05
29 *7:19 *129:15 0.000214397
30 *200:DIODE *186:DIODE 5.31465e-05
31 *4:22 *186:DIODE 3.00829e-05
32 *5:16 *7:11 4.4426e-06
33 *6:7 *7:7 0
34 *6:7 *7:11 7.40248e-05
*RES
1 gpio_defaults[3] *7:7 6.53571 
2 *7:7 *7:11 20.2679 
3 *7:11 *7:19 43.5536 
4 *7:19 *188:DIODE 20.8536 
5 *7:19 *186:DIODE 26.6571 
6 *7:11 *331:B 13.8 
7 *7:7 *330:B 27.4071 
*END

*D_NET *8 0.017071
*CONN
*P gpio_defaults[4] I
*I *189:DIODE I *D sky130_fd_sc_hd__diode_2
*I *332:B I *D sky130_fd_sc_hd__or2_0
*I *190:DIODE I *D sky130_fd_sc_hd__diode_2
*I *333:B I *D sky130_fd_sc_hd__nand2b_2
*CAP
1 gpio_defaults[4] 0.000894922
2 *189:DIODE 0.00130646
3 *332:B 3.3247e-05
4 *190:DIODE 7.37292e-05
5 *333:B 0.000464135
6 *8:39 0.00248778
7 *8:19 0.00183391
8 *8:11 0.00333905
9 *189:DIODE resetn_out 4.9866e-05
10 *189:DIODE *317:A_N 2.16355e-05
11 *189:DIODE *12:18 0.000445824
12 *189:DIODE *13:45 1.66771e-05
13 *189:DIODE *34:16 0.000653678
14 *189:DIODE *42:28 5.04829e-06
15 *189:DIODE *102:16 2.02035e-05
16 *190:DIODE *53:10 9.72686e-05
17 *332:B *326:A 2.16355e-05
18 *332:B *376:RESET_B 6.08467e-05
19 *332:B *396:A 1.66626e-05
20 *332:B *132:6 1.66626e-05
21 *333:B *53:10 0.000317553
22 *333:B *61:11 8.61152e-06
23 *333:B *114:55 3.98081e-06
24 *333:B *116:65 6.46815e-05
25 *333:B *116:69 2.52287e-06
26 *8:11 *373:CLK 4.64001e-05
27 *8:11 *375:CLK 5.49769e-05
28 *8:11 *386:RESET_B 0.000749588
29 *8:11 *9:14 0
30 *8:11 *96:68 7.5617e-05
31 *8:19 *201:DIODE 3.89804e-05
32 *8:19 *373:CLK 9.17798e-05
33 *8:19 *386:RESET_B 0.000914308
34 *8:19 *392:A 8.272e-05
35 *8:19 *408:A 0.000298287
36 *8:19 *9:35 0.000297142
37 *8:19 *95:8 8.02727e-05
38 *8:19 *96:68 1.48262e-05
39 *8:19 *114:55 0.000124535
40 *8:19 *116:87 0.000130755
41 *8:19 *119:29 0.000617015
42 *8:39 pad_gpio_vtrip_sel 0
43 *8:39 *183:DIODE 0.000120311
44 *8:39 *12:18 9.4191e-05
45 *8:39 *13:28 1.28301e-05
46 *188:DIODE *8:19 0.000205897
47 *1:23 *8:11 7.64213e-06
48 *2:21 *189:DIODE 0.000243019
49 *2:21 *8:39 2.99671e-05
50 *6:28 *333:B 0.000111189
51 *7:7 *8:11 0
52 *7:19 *8:19 0.000372106
*RES
1 gpio_defaults[4] *8:11 17.6696 
2 *8:11 *8:19 40.6518 
3 *8:19 *333:B 24.5143 
4 *8:19 *190:DIODE 10.2464 
5 *8:11 *8:39 5.54693 
6 *8:39 *332:B 18.0225 
7 *8:39 *189:DIODE 22.4509 
*END

*D_NET *9 0.0147245
*CONN
*P gpio_defaults[5] I
*I *342:B I *D sky130_fd_sc_hd__or2_0
*I *202:DIODE I *D sky130_fd_sc_hd__diode_2
*I *201:DIODE I *D sky130_fd_sc_hd__diode_2
*I *343:B I *D sky130_fd_sc_hd__nand2b_2
*CAP
1 gpio_defaults[5] 0.00131569
2 *342:B 0.000429339
3 *202:DIODE 0
4 *201:DIODE 0.000401033
5 *343:B 0.000107827
6 *9:37 0.000441564
7 *9:35 0.00104205
8 *9:14 0.0019957
9 *201:DIODE *370:CLK_N 0.000936729
10 *201:DIODE *441:A 0.000205404
11 *201:DIODE *39:10 0.000216458
12 *201:DIODE *114:55 0.000218651
13 *201:DIODE *119:29 0.000132675
14 *342:B *392:A 8.36586e-06
15 *342:B *440:A 5.14448e-05
16 *342:B *14:12 2.19125e-05
17 *342:B *97:5 6.64392e-05
18 *342:B *98:17 8.29362e-05
19 *342:B *114:33 0.00063956
20 *343:B *343:A_N 0.00025527
21 *343:B *370:SET_B 1.65872e-05
22 *343:B *393:A 6.27782e-05
23 *9:14 *365:CLK_N 0.000180676
24 *9:14 *370:SET_B 0.000587064
25 *9:14 *373:CLK 0.00100289
26 *9:14 *10:7 0
27 *9:14 *96:25 0.000342667
28 *9:14 *141:16 3.39313e-06
29 *9:35 *371:CLK_N 0.000410308
30 *9:35 *378:RESET_B 2.86829e-05
31 *9:35 *386:RESET_B 0.000204112
32 *9:35 *392:A 0.000512904
33 *9:35 *114:83 0.000217447
34 *9:35 *119:29 0.000418562
35 *9:35 *158:46 0.000407526
36 *9:37 *440:A 1.13142e-05
37 *9:37 *114:55 1.03594e-05
38 *9:37 *119:29 6.23012e-05
39 *5:29 *9:14 0.00131296
40 *6:19 *9:35 2.67514e-05
41 *8:11 *9:14 0
42 *8:19 *201:DIODE 3.89804e-05
43 *8:19 *9:35 0.000297142
*RES
1 gpio_defaults[5] *9:14 37.6071 
2 *9:14 *343:B 11.8893 
3 *9:14 *9:35 39.9821 
4 *9:35 *9:37 1.03571 
5 *9:37 *201:DIODE 26.2286 
6 *9:37 *202:DIODE 13.8 
7 *9:35 *342:B 22.9964 
*END

*D_NET *10 0.0134722
*CONN
*P gpio_defaults[6] I
*I *203:DIODE I *D sky130_fd_sc_hd__diode_2
*I *344:B I *D sky130_fd_sc_hd__or2_0
*I *345:B I *D sky130_fd_sc_hd__nand2b_2
*I *204:DIODE I *D sky130_fd_sc_hd__diode_2
*CAP
1 gpio_defaults[6] 0.000783763
2 *203:DIODE 0
3 *344:B 0.000229227
4 *345:B 0
5 *204:DIODE 0.000479962
6 *10:44 0.00107865
7 *10:20 0.00113456
8 *10:7 0.00228779
9 *204:DIODE *313:A 6.3657e-05
10 *204:DIODE *371:CLK_N 0.000110297
11 *204:DIODE *440:A 0.000630419
12 *204:DIODE *63:10 0.000259547
13 *204:DIODE *114:55 6.0414e-05
14 *204:DIODE *114:66 7.4259e-05
15 *204:DIODE *116:91 0.000108704
16 *344:B *344:A 6.53364e-05
17 *344:B *349:A 1.99596e-06
18 *344:B *396:A 0.000200397
19 *344:B *409:A 0.000111802
20 *344:B *428:A 0.000114495
21 *344:B *132:6 0.000417827
22 *344:B *157:31 3.07796e-05
23 *10:7 *364:D 0.000227128
24 *10:7 *376:D 0.000212554
25 *10:7 *377:D 0.000103468
26 *10:7 *11:17 0.000155581
27 *10:7 *12:10 0
28 *10:7 *137:13 0.000901863
29 *10:7 *141:16 0.000181527
30 *10:20 *313:A 0.000346927
31 *10:20 *365:D 5.46907e-05
32 *10:20 *371:CLK_N 6.08467e-05
33 *10:20 *96:19 0.000351188
34 *10:20 *114:66 1.65872e-05
35 *10:20 *137:13 0.0010162
36 *10:20 *151:8 6.1664e-05
37 *10:44 *377:RESET_B 0.000106274
38 *10:44 *396:A 6.96846e-05
39 *10:44 *433:A 1.64847e-05
40 *10:44 *12:10 5.89933e-05
41 *10:44 *114:15 5.40018e-05
42 *10:44 *132:6 6.23012e-05
43 *5:29 *204:DIODE 0.000832864
44 *5:29 *10:7 3.10514e-05
45 *5:29 *10:20 0.000306455
46 *9:14 *10:7 0
*RES
1 gpio_defaults[6] *10:7 19.4821 
2 *10:7 *10:20 22.875 
3 *10:20 *204:DIODE 33.925 
4 *10:20 *345:B 9.3 
5 *10:7 *10:44 18.7857 
6 *10:44 *344:B 20.7464 
7 *10:44 *203:DIODE 13.8 
*END

*D_NET *11 0.0155308
*CONN
*P gpio_defaults[7] I
*I *346:B I *D sky130_fd_sc_hd__or2_0
*I *347:B I *D sky130_fd_sc_hd__nand2b_2
*I *205:DIODE I *D sky130_fd_sc_hd__diode_2
*I *206:DIODE I *D sky130_fd_sc_hd__diode_2
*CAP
1 gpio_defaults[7] 0.00130494
2 *346:B 0
3 *347:B 1.96723e-05
4 *205:DIODE 0.000385852
5 *206:DIODE 0.00137163
6 *11:58 0.000892812
7 *11:41 0.00208611
8 *11:33 0.000648233
9 *11:17 0.00172599
10 *205:DIODE *323:A_N 1.88333e-05
11 *205:DIODE *388:TE_B 3.73474e-05
12 *205:DIODE *51:17 0.000160942
13 *205:DIODE *98:17 5.04829e-06
14 *206:DIODE *386:RESET_B 4.24488e-05
15 *206:DIODE *387:A 1.65872e-05
16 *206:DIODE *388:TE_B 0.000109884
17 *206:DIODE *111:8 1.33062e-05
18 *347:B *388:TE_B 4.76161e-06
19 *11:17 *363:CLK_N 0.000451209
20 *11:17 *364:SET_B 6.07304e-07
21 *11:17 *365:RESET_B 5.9951e-05
22 *11:17 *366:SET_B 0.000267612
23 *11:17 *376:RESET_B 0.000108543
24 *11:17 *379:RESET_B 5.04829e-06
25 *11:17 *410:A 4.9e-05
26 *11:17 *12:10 5.57954e-05
27 *11:17 *41:33 1.70006e-05
28 *11:17 *111:8 0.000906818
29 *11:17 *115:14 0.000132408
30 *11:17 *115:16 1.48211e-05
31 *11:17 *126:10 0.000103688
32 *11:17 *132:6 0.000397123
33 *11:17 *137:13 0.000734827
34 *11:17 *143:10 0.000298979
35 *11:33 *344:A 0.00025175
36 *11:33 *349:A 6.65668e-05
37 *11:33 *371:RESET_B 0.000196745
38 *11:33 *381:D 4.9e-05
39 *11:33 *428:A 0.000299984
40 *11:33 *115:14 3.49076e-06
41 *11:33 *115:16 6.4937e-05
42 *11:33 *115:20 3.20264e-05
43 *11:33 *132:6 1.18339e-05
44 *11:41 *403:A 0.000343552
45 *11:41 *97:19 0.000205476
46 *11:41 *114:27 0.000204704
47 *11:41 *115:29 0.000125322
48 *11:58 *371:RESET_B 3.54024e-05
49 *11:58 *388:TE_B 0.000694781
50 *11:58 *428:A 0.000153389
51 *11:58 *438:A 0.000113739
52 *11:58 *132:6 7.22987e-05
53 *7:19 *206:DIODE 2.41274e-06
54 *10:7 *11:17 0.000155581
*RES
1 gpio_defaults[7] *11:17 49.8304 
2 *11:17 *11:33 22.4375 
3 *11:33 *11:41 15.2857 
4 *11:41 *206:DIODE 23.7286 
5 *11:41 *11:58 18.4821 
6 *11:58 *205:DIODE 13.9607 
7 *11:58 *347:B 9.72857 
8 *11:33 *346:B 9.3 
*END

*D_NET *12 0.0127892
*CONN
*P gpio_defaults[8] I
*I *326:B I *D sky130_fd_sc_hd__or2_0
*I *182:DIODE I *D sky130_fd_sc_hd__diode_2
*I *181:DIODE I *D sky130_fd_sc_hd__diode_2
*I *327:B I *D sky130_fd_sc_hd__nand2b_2
*CAP
1 gpio_defaults[8] 0.000863251
2 *326:B 3.59006e-05
3 *182:DIODE 0.000328666
4 *181:DIODE 0.000509774
5 *327:B 4.22457e-05
6 *12:30 0.00117015
7 *12:18 0.00157053
8 *12:10 0.00209572
9 *181:DIODE *13:45 0.000268152
10 *181:DIODE *13:66 0.000298715
11 *181:DIODE *41:33 0.000152631
12 *181:DIODE *103:11 0.000556508
13 *182:DIODE *13:45 0.000126353
14 *182:DIODE *42:10 5.83017e-05
15 *182:DIODE *100:22 2.61955e-05
16 *182:DIODE *103:11 0.000418408
17 *326:B *433:A 6.54543e-05
18 *326:B *114:15 0.000142909
19 *327:B *399:A 5.84021e-05
20 *327:B *67:10 2.08648e-05
21 *12:10 *361:SET_B 0.00091077
22 *12:10 *364:SET_B 8.69298e-05
23 *12:10 *377:RESET_B 0.000257513
24 *12:10 *433:A 0.000223599
25 *12:10 *13:9 8.53124e-05
26 *12:10 *111:8 0.000389641
27 *12:10 *114:15 1.41976e-05
28 *12:18 *365:RESET_B 9.23267e-05
29 *12:18 *13:28 0.000249269
30 *12:18 *34:16 0.000139319
31 *12:18 *34:21 0
32 *12:30 *13:28 4.68315e-05
33 *12:30 *13:45 2.91684e-05
34 *12:30 *34:16 0.000617138
35 *189:DIODE *12:18 0.000445824
36 *340:B *182:DIODE 0.000118017
37 *1:45 *12:18 1.93857e-05
38 *2:21 *12:18 4.57907e-05
39 *8:39 *12:18 9.4191e-05
40 *10:7 *12:10 0
41 *10:44 *12:10 5.89933e-05
42 *11:17 *12:10 5.57954e-05
*RES
1 gpio_defaults[8] *12:10 27.3036 
2 *12:10 *12:18 13.7727 
3 *12:18 *327:B 18.0939 
4 *12:18 *12:30 4.3218 
5 *12:30 *181:DIODE 24.7732 
6 *12:30 *182:DIODE 20.8982 
7 *12:10 *326:B 10.6571 
*END

*D_NET *13 0.0191475
*CONN
*P gpio_defaults[9] I
*I *328:B I *D sky130_fd_sc_hd__or2_0
*I *184:DIODE I *D sky130_fd_sc_hd__diode_2
*I *329:B I *D sky130_fd_sc_hd__nand2b_2
*I *183:DIODE I *D sky130_fd_sc_hd__diode_2
*CAP
1 gpio_defaults[9] 0.000584375
2 *328:B 0
3 *184:DIODE 0.000350815
4 *329:B 6.43307e-05
5 *183:DIODE 0.00150037
6 *13:66 0.00173985
7 *13:45 0.00173073
8 *13:28 0.00218062
9 *13:9 0.00385934
10 *183:DIODE serial_data_out 0
11 *183:DIODE *364:CLK_N 0.000115167
12 *183:DIODE *374:RESET_B 5.58964e-05
13 *183:DIODE *414:A 0.000253345
14 *183:DIODE *38:8 4.69495e-06
15 *184:DIODE *341:A_N 0.000250197
16 *184:DIODE *439:A 0.000250343
17 *184:DIODE *145:17 0.000146158
18 *329:B *360:CLK_N 1.5714e-05
19 *329:B *33:18 1.5714e-05
20 *329:B *118:41 8.93246e-05
21 *13:9 *361:SET_B 0.000137193
22 *13:9 *366:RESET_B 0.000480081
23 *13:9 *366:SET_B 0.000205669
24 *13:9 *126:10 7.63961e-05
25 *13:28 serial_data_out 0.00021424
26 *13:45 serial_data_out 1.8472e-05
27 *13:45 *42:10 0.000186268
28 *13:45 *102:16 4.61048e-05
29 *13:66 pad_gpio_dm[1] 4.99354e-06
30 *13:66 *316:A1 0.000208834
31 *13:66 *367:SET_B 0.000445596
32 *13:66 *407:A 0.000137252
33 *13:66 *430:A 0.000140383
34 *13:66 *67:10 0.000673362
35 *13:66 *102:16 8.72115e-06
36 *13:66 *103:11 2.51664e-05
37 *13:66 *109:11 2.79483e-05
38 *13:66 *120:32 8.85135e-05
39 *13:66 *121:8 0.000435416
40 *13:66 *121:36 0.000313879
41 *181:DIODE *13:45 0.000268152
42 *181:DIODE *13:66 0.000298715
43 *182:DIODE *13:45 0.000126353
44 *189:DIODE *13:45 1.66771e-05
45 *340:B *329:B 0.000107496
46 *1:45 *13:28 6.21462e-05
47 *2:21 *13:9 0
48 *2:21 *13:45 3.41229e-05
49 *2:21 *13:66 0.000545875
50 *2:26 *13:66 6.27718e-05
51 *8:39 *183:DIODE 0.000120311
52 *8:39 *13:28 1.28301e-05
53 *12:10 *13:9 8.53124e-05
54 *12:18 *13:28 0.000249269
55 *12:30 *13:28 4.68315e-05
56 *12:30 *13:45 2.91684e-05
*RES
1 gpio_defaults[9] *13:9 17.3832 
2 *13:9 *183:DIODE 25.9676 
3 *13:9 *13:28 3.54223 
4 *13:28 *329:B 18.8618 
5 *13:28 *13:45 9.18277 
6 *13:45 *13:66 43.3801 
7 *13:66 *184:DIODE 22.2732 
8 *13:45 *328:B 13.8 
*END

*D_NET *14 0.0112184
*CONN
*P mgmt_gpio_in O
*I *388:Z O *D sky130_fd_sc_hd__ebufn_8
*CAP
1 mgmt_gpio_in 0.000310554
2 *388:Z 0.000108361
3 *14:12 0.0031934
4 *14:8 0.00299121
5 mgmt_gpio_in one 0.000470254
6 mgmt_gpio_in zero 0.000470254
7 mgmt_gpio_in *16:11 0.000446453
8 mgmt_gpio_in *18:5 0.000236302
9 *14:8 *370:SET_B 0.000328421
10 *14:8 *34:21 0.000329785
11 *14:12 one 0
12 *14:12 pad_gpio_ana_pol 0.000544517
13 *14:12 pad_gpio_dm[0] 0.000139015
14 *14:12 pad_gpio_ib_mode_sel 7.98171e-06
15 *14:12 pad_gpio_inenb 0.000389723
16 *14:12 pad_gpio_outenb 6.89449e-05
17 *14:12 *354:A 2.16355e-05
18 *14:12 *367:CLK_N 0.000236198
19 *14:12 *370:RESET_B 2.77625e-06
20 *14:12 *24:9 0.000653469
21 *14:12 *40:7 8.55407e-05
22 *14:12 *97:5 0.000127795
23 *14:12 *98:17 3.38969e-05
24 *342:B *14:12 2.19125e-05
*RES
1 *388:Z *14:8 22.675 
2 *14:8 *14:12 48.1161 
3 *14:12 mgmt_gpio_in 5.63153 
*END

*D_NET *15 0.00668088
*CONN
*P mgmt_gpio_oeb I
*I *419:A I *D sky130_fd_sc_hd__buf_2
*I *210:DIODE I *D sky130_fd_sc_hd__diode_2
*CAP
1 mgmt_gpio_oeb 0.0014428
2 *419:A 0
3 *210:DIODE 0.000889163
4 *15:8 0.00233196
5 *210:DIODE *212:DIODE 3.41139e-05
6 *210:DIODE *18:5 0.000117376
7 *15:8 one 0.000593738
8 *15:8 pad_gpio_ana_pol 0
9 *15:8 zero 0
10 *15:8 *212:DIODE 2.34686e-05
11 *15:8 *23:7 0.000180795
12 *195:DIODE *210:DIODE 0.00106747
*RES