*SPEF "ieee 1481-1999"
*DESIGN "gpio_control_block"
*DATE "11:11:11 Fri 11 11, 1111"
*VENDOR "OpenRCX"
*PROGRAM "Parallel Extraction"
*VERSION "1.0"
*DESIGN_FLOW "NAME_SCOPE LOCAL" "PIN_CAP NONE"
*DIVIDER /
*DELIMITER :
*BUS_DELIMITER []
*T_UNIT 1 NS
*C_UNIT 1 PF
*R_UNIT 1 OHM
*L_UNIT 1 HENRY

*NAME_MAP
*1 gpio_defaults[0]
*2 gpio_defaults[10]
*3 gpio_defaults[11]
*4 gpio_defaults[12]
*5 gpio_defaults[1]
*6 gpio_defaults[2]
*7 gpio_defaults[3]
*8 gpio_defaults[4]
*9 gpio_defaults[5]
*10 gpio_defaults[6]
*11 gpio_defaults[7]
*12 gpio_defaults[8]
*13 gpio_defaults[9]
*14 mgmt_gpio_in
*15 mgmt_gpio_oeb
*16 mgmt_gpio_out
*17 one
*18 pad_gpio_ana_en
*19 pad_gpio_ana_pol
*20 pad_gpio_ana_sel
*21 pad_gpio_dm[0]
*22 pad_gpio_dm[1]
*23 pad_gpio_dm[2]
*24 pad_gpio_holdover
*25 pad_gpio_ib_mode_sel
*26 pad_gpio_in
*27 pad_gpio_inenb
*28 pad_gpio_out
*29 pad_gpio_outenb
*30 pad_gpio_slow_sel
*31 pad_gpio_vtrip_sel
*32 resetn
*33 resetn_out
*34 serial_clock
*35 serial_clock_out
*36 serial_data_in
*37 serial_data_out
*38 serial_load
*39 serial_load_out
*40 user_gpio_in
*41 user_gpio_oeb
*42 user_gpio_out
*47 zero
*48 _000_
*49 _001_
*50 _002_
*51 _003_
*52 _004_
*53 _005_
*54 _006_
*55 _007_
*56 _008_
*57 _009_
*58 _010_
*59 _011_
*60 _012_
*61 _013_
*62 _014_
*63 _015_
*64 _016_
*65 _017_
*66 _018_
*67 _019_
*68 _020_
*69 _021_
*70 _022_
*71 _023_
*72 _024_
*73 _025_
*74 _026_
*75 _027_
*76 _042_
*77 _043_
*78 _044_
*79 _045_
*80 _046_
*81 _047_
*82 _048_
*83 _049_
*84 _050_
*85 _051_
*86 _052_
*87 _053_
*88 _054_
*89 _055_
*90 _056_
*91 _057_
*92 _058_
*93 _059_
*94 clknet_0_serial_clock
*95 clknet_0_serial_load
*96 clknet_1_0__leaf_serial_clock
*97 clknet_1_0__leaf_serial_load
*98 gpio_logic1
*99 gpio_outenb
*100 mgmt_ena
*101 net1
*102 net10
*103 net11
*104 net12
*105 net13
*106 net14
*107 net15
*108 net16
*109 net17
*110 net18
*111 net19
*112 net2
*113 net20
*114 net21
*115 net22
*116 net23
*117 net24
*118 net25
*119 net26
*120 net27
*121 net28
*122 net29
*123 net3
*124 net30
*125 net31
*126 net32
*127 net33
*128 net34
*129 net35
*130 net36
*131 net37
*132 net38
*133 net39
*134 net4
*135 net40
*136 net41
*137 net42
*138 net43
*139 net44
*140 net45
*141 net46
*142 net47
*143 net48
*144 net49
*145 net5
*146 net50
*147 net51
*148 net52
*149 net53
*150 net54
*151 net55
*152 net6
*153 net7
*154 net8
*155 net9
*156 one_buffered
*157 serial_clock_out_buffered
*158 serial_load_out_buffered
*159 shift_register\[0\]
*160 shift_register\[10\]
*161 shift_register\[11\]
*162 shift_register\[12\]
*163 shift_register\[1\]
*164 shift_register\[2\]
*165 shift_register\[3\]
*166 shift_register\[4\]
*167 shift_register\[5\]
*168 shift_register\[6\]
*169 shift_register\[7\]
*170 shift_register\[8\]
*171 shift_register\[9\]
*172 zero_buffered
*173 ANTENNA__065__A0
*174 ANTENNA__066__B
*175 ANTENNA__071__B
*176 ANTENNA__072__B
*177 ANTENNA__073__A
*178 ANTENNA__073__B
*179 ANTENNA__074__A_N
*180 ANTENNA__074__B
*181 ANTENNA__075__B
*182 ANTENNA__076__B
*183 ANTENNA__077__B
*184 ANTENNA__078__B
*185 ANTENNA__079__A
*186 ANTENNA__079__B
*187 ANTENNA__080__A_N
*188 ANTENNA__080__B
*189 ANTENNA__081__B
*190 ANTENNA__082__B
*191 ANTENNA__083__A
*192 ANTENNA__083__B
*193 ANTENNA__084__A_N
*194 ANTENNA__084__B
*195 ANTENNA__085__B
*196 ANTENNA__086__B
*197 ANTENNA__087__B
*198 ANTENNA__088__B
*199 ANTENNA__089__B
*200 ANTENNA__090__B
*201 ANTENNA__091__B
*202 ANTENNA__092__B
*203 ANTENNA__093__B
*204 ANTENNA__094__B
*205 ANTENNA__095__B
*206 ANTENNA__096__B
*207 ANTENNA__125__RESET_B
*208 ANTENNA_clkbuf_0_serial_clock_A
*209 ANTENNA_clkbuf_0_serial_load_A
*210 ANTENNA_input1_A
*211 ANTENNA_input2_A
*212 ANTENNA_input3_A
*213 ANTENNA_input4_A
*214 ANTENNA_input5_A
*215 FILLER_0_3
*216 FILLER_0_31
*217 FILLER_0_57
*218 FILLER_0_91
*219 FILLER_10_85
*220 FILLER_14_98
*221 FILLER_17_98
*222 FILLER_19_55
*223 FILLER_19_70
*224 FILLER_1_32
*225 FILLER_1_98
*226 FILLER_20_98
*227 FILLER_2_42
*228 FILLER_2_48
*229 FILLER_2_52
*230 FILLER_3_48
*231 FILLER_3_80
*232 FILLER_5_56
*233 FILLER_5_98
*234 FILLER_7_98
*235 FILLER_8_52
*236 FILLER_8_98
*237 PHY_0
*238 PHY_1
*239 PHY_10
*240 PHY_11
*241 PHY_12
*242 PHY_13
*243 PHY_14
*244 PHY_15
*245 PHY_16
*246 PHY_17
*247 PHY_18
*248 PHY_19
*249 PHY_2
*250 PHY_20
*251 PHY_21
*252 PHY_22
*253 PHY_23
*254 PHY_24
*255 PHY_25
*256 PHY_26
*257 PHY_27
*258 PHY_28
*259 PHY_29
*260 PHY_3
*261 PHY_30
*262 PHY_31
*263 PHY_32
*264 PHY_33
*265 PHY_34
*266 PHY_35
*267 PHY_36
*268 PHY_37
*269 PHY_38
*270 PHY_39
*271 PHY_4
*272 PHY_40
*273 PHY_41
*274 PHY_5
*275 PHY_6
*276 PHY_7
*277 PHY_8
*278 PHY_9
*279 TAP_42
*280 TAP_43
*281 TAP_44
*282 TAP_45
*283 TAP_46
*284 TAP_47
*285 TAP_48
*286 TAP_49
*287 TAP_50
*288 TAP_51
*289 TAP_52
*290 TAP_53
*291 TAP_54
*292 TAP_55
*293 TAP_56
*294 TAP_57
*295 TAP_58
*296 TAP_59
*297 TAP_60
*298 TAP_61
*299 TAP_62
*300 TAP_63
*301 TAP_64
*302 TAP_65
*303 TAP_66
*304 TAP_67
*305 TAP_68
*306 TAP_69
*307 TAP_70
*308 TAP_71
*309 TAP_72
*310 TAP_73
*311 _060_
*312 _061__1
*313 _062__14
*314 _063_
*315 _064_
*316 _065_
*317 _066_
*318 _067_
*319 _068_
*320 _069_
*321 _070_
*322 _071_
*323 _072_
*324 _073_
*325 _074_
*326 _075_
*327 _076_
*328 _077_
*329 _078_
*330 _079_
*331 _080_
*332 _081_
*333 _082_
*334 _083_
*335 _084_
*336 _085_
*337 _086_
*338 _087_
*339 _088_
*340 _089_
*341 _090_
*342 _091_
*343 _092_
*344 _093_
*345 _094_
*346 _095_
*347 _096_
*348 _097__2
*349 _098__3
*350 _099__4
*351 _100__5
*352 _101__6
*353 _102__7
*354 _103__8
*355 _104__9
*356 _105__10
*357 _106__11
*358 _107__12
*359 _108__13
*360 _109_
*361 _110_
*362 _111_
*363 _112_
*364 _113_
*365 _114_
*366 _115_
*367 _116_
*368 _117_
*369 _118_
*370 _119_
*371 _120_
*372 _121_
*373 _122_
*374 _123_
*375 _124_
*376 _125_
*377 _126_
*378 _127_
*379 _128_
*380 _129_
*381 _130_
*382 _131_
*383 _132_
*384 _133_
*385 _134_
*386 _135_
*387 _136_
*388 _139_
*389 clkbuf_0_serial_clock
*390 clkbuf_0_serial_load
*391 clkbuf_1_0__f_serial_clock
*392 clkbuf_1_0__f_serial_load
*393 clkbuf_1_1__f_serial_clock
*394 clkbuf_1_1__f_serial_load
*395 const_source
*396 fanout21
*397 fanout22
*398 fanout23
*399 fanout24
*400 fanout25
*401 fanout26
*402 fanout27
*403 fanout28
*404 gpio_in_buf
*405 gpio_logic_high
*406 hold1
*407 hold10
*408 hold11
*409 hold12
*410 hold13
*411 hold2
*412 hold3
*413 hold4
*414 hold5
*415 hold6
*416 hold7
*417 hold8
*418 hold9
*419 input1
*420 input2
*421 input3
*422 input4
*423 input5
*424 one_buffer
*425 output10
*426 output11
*427 output12
*428 output13
*429 output14
*430 output15
*431 output16
*432 output17
*433 output18
*434 output19
*435 output20
*436 output6
*437 output7
*438 output8
*439 output9
*440 serial_clock_out_buffer
*441 serial_load_out_buffer
*442 zero_buffer

*PORTS
gpio_defaults[0] I
gpio_defaults[10] I
gpio_defaults[11] I
gpio_defaults[12] I
gpio_defaults[1] I
gpio_defaults[2] I
gpio_defaults[3] I
gpio_defaults[4] I
gpio_defaults[5] I
gpio_defaults[6] I
gpio_defaults[7] I
gpio_defaults[8] I
gpio_defaults[9] I
mgmt_gpio_in O
mgmt_gpio_oeb I
mgmt_gpio_out I
one O
pad_gpio_ana_en O
pad_gpio_ana_pol O
pad_gpio_ana_sel O
pad_gpio_dm[0] O
pad_gpio_dm[1] O
pad_gpio_dm[2] O
pad_gpio_holdover O
pad_gpio_ib_mode_sel O
pad_gpio_in I
pad_gpio_inenb O
pad_gpio_out O
pad_gpio_outenb O
pad_gpio_slow_sel O
pad_gpio_vtrip_sel O
resetn I
resetn_out O
serial_clock I
serial_clock_out O
serial_data_in I
serial_data_out O
serial_load I
serial_load_out O
user_gpio_in O
user_gpio_oeb I
user_gpio_out I
zero O

*D_NET *1 0.0153889
*CONN
*P gpio_defaults[0] I
*I *176:DIODE I *D sky130_fd_sc_hd__diode_2
*I *323:B I *D sky130_fd_sc_hd__nand2b_2
*I *322:B I *D sky130_fd_sc_hd__or2_0
*I *175:DIODE I *D sky130_fd_sc_hd__diode_2
*CAP
1 gpio_defaults[0] 0.000310686
2 *176:DIODE 0.00124184
3 *323:B 0.000231818
4 *322:B 1.23559e-05
5 *175:DIODE 0.000322232
6 *1:34 0.00274483
7 *1:17 0.00367426
8 *1:5 0.00302365
9 *175:DIODE *116:50 0.000130237
10 *176:DIODE pad_gpio_dm[1] 0
11 *176:DIODE pad_gpio_out 3.31745e-05
12 *176:DIODE *316:A1 1.57386e-05
13 *176:DIODE *367:SET_B 2.33103e-06
14 *176:DIODE *13:65 1.41473e-05
15 *176:DIODE *26:8 2.91781e-05
16 *176:DIODE *78:8 0.000115252
17 *176:DIODE *102:14 0.000430257
18 *322:B *412:A 7.86825e-06
19 *323:B *205:DIODE 3.04436e-05
20 *323:B *360:SET_B 0.000182095
21 *323:B *367:CLK_N 1.60111e-05
22 *323:B *367:D 3.27606e-06
23 *323:B *372:SET_B 0.000310867
24 *323:B *388:TE_B 6.76752e-05
25 *323:B *11:44 0.000227083
26 *323:B *117:17 0.000112231
27 *1:5 *5:11 0
28 *1:5 *116:50 9.47178e-05
29 *1:17 serial_data_out 0
30 *1:17 *38:8 0.00034941
31 *1:34 *312:A 0.000113785
32 *1:34 *322:A 0
33 *1:34 *360:RESET_B 0.000143388
34 *1:34 *360:SET_B 0
35 *1:34 *362:D 0.000303557
36 *1:34 *367:D 8.54289e-05
37 *1:34 *368:CLK_N 7.03112e-06
38 *1:34 *372:RESET_B 0.000143309
39 *1:34 *372:SET_B 0.000165698
40 *1:34 *382:D 0.000237705
41 *1:34 *384:D 0
42 *1:34 *384:RESET_B 0
43 *1:34 *385:D 0
44 *1:34 *412:A 0
45 *1:34 *38:8 3.47804e-05
46 *1:34 *117:17 0.000185517
47 *1:34 *121:14 1.95776e-05
48 *1:34 *145:24 0.000215489
*RES
1 gpio_defaults[0] *1:5 5.52679 
2 *1:5 *175:DIODE 19.0768 
3 *1:5 *1:17 8.14133 
4 *1:17 *322:B 17.4868 
5 *1:17 *1:34 28.7446 
6 *1:34 *323:B 20.8089 
7 *1:34 *176:DIODE 24.7859 
*END

*D_NET *2 0.0193554
*CONN
*P gpio_defaults[10] I
*I *336:B I *D sky130_fd_sc_hd__or2_0
*I *195:DIODE I *D sky130_fd_sc_hd__diode_2
*I *196:DIODE I *D sky130_fd_sc_hd__diode_2
*I *337:B I *D sky130_fd_sc_hd__nand2b_2
*CAP
1 gpio_defaults[10] 0.00198509
2 *336:B 0
3 *195:DIODE 0.0010558
4 *196:DIODE 0
5 *337:B 0
6 *2:58 0.00199717
7 *2:46 0.00102591
8 *2:41 0.000389215
9 *2:36 0.00228976
10 *195:DIODE one 0
11 *195:DIODE *198:DIODE 0.000482004
12 *195:DIODE *210:DIODE 0.000759497
13 *195:DIODE *311:A 0.000150254
14 *195:DIODE *320:A1 0.00012136
15 *195:DIODE *442:A 0.000859558
16 *195:DIODE *18:5 5.32721e-05
17 *195:DIODE *120:47 2.86829e-05
18 *2:36 serial_data_out 0.000111154
19 *2:36 *189:DIODE 0.00015607
20 *2:36 *312:A 0.000260531
21 *2:36 *321:B1 0.000107496
22 *2:36 *327:B 5.49916e-05
23 *2:36 *329:A_N 2.77625e-06
24 *2:36 *362:SET_B 1.03594e-05
25 *2:36 *364:RESET_B 0.000313087
26 *2:36 *373:D 0.000153823
27 *2:36 *373:RESET_B 6.68253e-06
28 *2:36 *376:RESET_B 1.77894e-05
29 *2:36 *396:A 4.37376e-05
30 *2:36 *399:A 0.000222494
31 *2:36 *3:5 0
32 *2:36 *4:21 1.5714e-05
33 *2:36 *13:18 0
34 *2:36 *13:42 0.00124563
35 *2:36 *42:27 1.77268e-05
36 *2:36 *67:10 4.39506e-05
37 *2:36 *114:12 0.000158451
38 *2:36 *117:34 3.553e-05
39 *2:36 *132:6 0.000382454
40 *2:36 *157:47 7.43171e-05
41 *2:36 *162:8 1.91246e-05
42 *2:41 *316:A1 0.000188517
43 *2:41 *13:47 0.000174794
44 *2:41 *13:65 0.000142561
45 *2:41 *102:14 0.000701342
46 *2:46 *13:65 0.000109421
47 *2:46 *120:27 0.000154145
48 *2:46 *120:47 9.52298e-05
49 *2:58 pad_gpio_ana_pol 0
50 *2:58 *18:5 0
51 *2:58 *36:11 0.000258733
52 *2:58 *101:8 0.000490545
53 *2:58 *118:8 0.000284969
54 *2:58 *118:25 0.00123605
55 *2:58 *120:47 0.00086765
*RES
1 gpio_defaults[10] *2:36 48.2739 
2 *2:36 *2:41 18.5357 
3 *2:41 *337:B 9.3 
4 *2:41 *2:46 2.17857 
5 *2:46 *196:DIODE 9.3 
6 *2:46 *2:58 37.7679 
7 *2:58 *195:DIODE 47.6571 
8 *2:58 *336:B 9.3 
*END

*D_NET *3 0.0180877
*CONN
*P gpio_defaults[11] I
*I *338:B I *D sky130_fd_sc_hd__or2_0
*I *339:B I *D sky130_fd_sc_hd__nand2b_2
*I *197:DIODE I *D sky130_fd_sc_hd__diode_2
*I *198:DIODE I *D sky130_fd_sc_hd__diode_2
*CAP
1 gpio_defaults[11] 5.43606e-05
2 *338:B 0.00156791
3 *339:B 0.000399014
4 *197:DIODE 8.47319e-05
5 *198:DIODE 0.000989488
6 *3:37 0.00149438
7 *3:31 0.00107508
8 *3:28 0.00208839
9 *3:5 0.00345476
10 *197:DIODE *214:DIODE 1.87146e-05
11 *198:DIODE *210:DIODE 6.78364e-06
12 *198:DIODE *438:A 2.39545e-05
13 *198:DIODE *442:A 0.000518466
14 *198:DIODE *18:5 3.16131e-05
15 *338:B *42:10 0.000118002
16 *339:B pad_gpio_holdover 4.5445e-05
17 *339:B *339:A_N 2.91008e-06
18 *339:B *401:A 0.000111802
19 *339:B *427:A 6.27718e-05
20 *339:B *35:13 0.00152419
21 *339:B *67:10 2.16355e-05
22 *339:B *119:18 0.00020578
23 *3:5 *4:9 0
24 *3:28 *344:B 0.000206147
25 *3:28 *349:A 0.000311569
26 *3:28 *363:CLK_N 5.481e-05
27 *3:28 *371:RESET_B 0.000370516
28 *3:28 *374:D 0.000137999
29 *3:28 *376:RESET_B 0.000329515
30 *3:28 *383:CLK 0.00021829
31 *3:28 *411:A 0.000201767
32 *3:28 *428:A 0.00064301
33 *3:28 *4:9 0
34 *3:28 *4:21 8.14794e-05
35 *3:28 *116:27 0
36 *3:28 *132:6 7.69594e-06
37 *3:28 *140:8 0.000165056
38 *3:28 *157:27 2.02035e-05
39 *3:28 *157:47 9.77689e-05
40 *3:28 *158:70 2.91525e-05
41 *3:31 *370:RESET_B 9.88127e-05
42 *3:31 *428:A 0.000338527
43 *3:31 *14:13 9.67059e-05
44 *3:31 *132:6 0.000125306
45 *3:37 *370:RESET_B 3.0676e-05
46 *3:37 *438:A 5.84765e-05
47 *3:37 *132:6 5.69532e-05
48 *3:37 *158:51 2.50929e-05
49 *195:DIODE *198:DIODE 0.000482004
50 *2:36 *3:5 0
*RES
1 gpio_defaults[11] *3:5 1.125 
2 *3:5 *3:28 48.1279 
3 *3:28 *3:31 10.0618 
4 *3:31 *3:37 7.76786 
5 *3:37 *198:DIODE 32.8893 
6 *3:37 *197:DIODE 14.7464 
7 *3:31 *339:B 27.0857 
8 *3:5 *338:B 40.175 
*END

*D_NET *4 0.0140214
*CONN
*P gpio_defaults[12] I
*I *340:B I *D sky130_fd_sc_hd__or2_0
*I *341:B I *D sky130_fd_sc_hd__nand2b_2
*I *199:DIODE I *D sky130_fd_sc_hd__diode_2
*I *200:DIODE I *D sky130_fd_sc_hd__diode_2
*CAP
1 gpio_defaults[12] 0.000572192
2 *340:B 0.00116855
3 *341:B 0.000530322
4 *199:DIODE 0
5 *200:DIODE 1.50285e-05
6 *4:22 0.000220494
7 *4:21 0.00205087
8 *4:9 0.00305582
9 *200:DIODE *185:DIODE 0.000114271
10 *200:DIODE *186:DIODE 5.31465e-05
11 *340:B *182:DIODE 0.000118017
12 *340:B *384:CLK 0.00027595
13 *340:B *42:10 0.000118017
14 *340:B *106:11 1.83827e-06
15 *340:B *118:37 0.000826641
16 *340:B *157:47 5.04829e-06
17 *341:B pad_gpio_dm[0] 0.000164686
18 *341:B *400:A 0.000117376
19 *341:B *439:A 0.000114271
20 *4:9 *376:RESET_B 0.00025115
21 *4:9 *427:A 7.78076e-05
22 *4:9 *116:27 0.000345743
23 *4:9 *116:41 5.33048e-05
24 *4:9 *164:16 0.000303544
25 *4:21 *371:RESET_B 0.000169348
26 *4:21 *376:RESET_B 2.97724e-05
27 *4:21 *388:TE_B 3.39313e-06
28 *4:21 *403:A 0.000143295
29 *4:21 *409:A 0.000318625
30 *4:21 *411:A 8.61277e-05
31 *4:21 *427:A 0.0013342
32 *4:21 *436:A 0.000245836
33 *4:21 *438:A 0.000609997
34 *4:21 *158:70 0.000248457
35 *4:22 *185:DIODE 0.000151001
36 *4:22 *186:DIODE 3.00829e-05
37 *2:36 *4:21 1.5714e-05
38 *3:5 *4:9 0
39 *3:28 *4:9 0
40 *3:28 *4:21 8.14794e-05
*RES
1 gpio_defaults[12] *4:9 12.4107 
2 *4:9 *4:21 38.7321 
3 *4:21 *4:22 3.82143 
4 *4:22 *200:DIODE 10.2464 
5 *4:22 *199:DIODE 9.3 
6 *4:21 *341:B 19.8357 
7 *4:9 *340:B 37.7107 
*END

*D_NET *5 0.0122246
*CONN
*P gpio_defaults[1] I
*I *334:B I *D sky130_fd_sc_hd__or2_0
*I *335:B I *D sky130_fd_sc_hd__nand2b_2
*I *194:DIODE I *D sky130_fd_sc_hd__diode_2
*I *192:DIODE I *D sky130_fd_sc_hd__diode_2
*CAP
1 gpio_defaults[1] 0.00040168
2 *334:B 1.98947e-05
3 *335:B 0
4 *194:DIODE 0
5 *192:DIODE 7.17381e-05
6 *5:21 0.000177273
7 *5:17 0.00166871
8 *5:11 0.00198475
9 *192:DIODE *61:11 0.000117376
10 *334:B *389:A 2.16355e-05
11 *334:B *116:45 6.08467e-05
12 *5:11 *330:B 0.000745519
13 *5:11 *6:7 0
14 *5:11 *7:11 0.000307806
15 *5:11 *9:14 3.90219e-05
16 *5:11 *10:7 3.39313e-06
17 *5:11 *116:45 0.00125067
18 *5:11 *141:12 9.65752e-06
19 *5:17 *204:DIODE 0.000832992
20 *5:17 *313:A 0.00121528
21 *5:17 *364:D 1.75024e-05
22 *5:17 *365:CLK_N 7.5848e-05
23 *5:17 *371:CLK_N 0.000466939
24 *5:17 *376:D 0.000412587
25 *5:17 *377:D 0.000119716
26 *5:17 *440:A 1.75024e-05
27 *5:17 *9:14 0.00132
28 *5:17 *10:7 4.55197e-05
29 *5:17 *10:18 0.000372067
30 *5:17 *96:19 0.000346414
31 *5:17 *141:12 6.47803e-05
32 *5:17 *143:10 2.75989e-05
33 *5:21 *313:A 9.89388e-06
34 *1:5 *5:11 0
*RES
1 gpio_defaults[1] *5:11 22.4643 
2 *5:11 *5:17 44.5 
3 *5:17 *5:21 6.14286 
4 *5:21 *192:DIODE 10.2464 
5 *5:21 *194:DIODE 9.3 
6 *5:17 *335:B 13.8 
7 *5:11 *334:B 14.3357 
*END

*D_NET *6 0.00909646
*CONN
*P gpio_defaults[2] I
*I *324:B I *D sky130_fd_sc_hd__or2_0
*I *180:DIODE I *D sky130_fd_sc_hd__diode_2
*I *178:DIODE I *D sky130_fd_sc_hd__diode_2
*I *325:B I *D sky130_fd_sc_hd__nand2b_2
*CAP
1 gpio_defaults[2] 0.000227227
2 *324:B 0.000105647
3 *180:DIODE 7.65644e-05
4 *178:DIODE 0
5 *325:B 1.99085e-05
6 *6:28 9.60957e-05
7 *6:20 9.66257e-05
8 *6:13 0.00237264
9 *6:7 0.00264833
10 *180:DIODE *53:7 0.000358606
11 *180:DIODE *114:59 0.000104639
12 *324:B *94:8 5.04829e-06
13 *324:B *116:45 0.000307799
14 *325:B *325:A_N 0
15 *6:7 *7:7 6.41465e-05
16 *6:13 *391:A 0.000322537
17 *6:13 *414:A 2.9273e-05
18 *6:13 *7:11 0
19 *6:13 *94:8 0.00157222
20 *6:13 *95:14 0.000179248
21 *6:20 *333:B 0.000130556
22 *6:20 *53:7 6.64392e-05
23 *6:20 *114:59 7.65484e-05
24 *6:28 *53:7 0.000167438
25 *6:28 *114:59 6.89158e-05
26 *5:11 *6:7 0
*RES
1 gpio_defaults[2] *6:7 4.30357 
2 *6:7 *6:13 49.1607 
3 *6:13 *6:20 6.82143 
4 *6:20 *325:B 9.72857 
5 *6:20 *6:28 1.35714 
6 *6:28 *178:DIODE 9.3 
7 *6:28 *180:DIODE 12.3 
8 *6:7 *324:B 16.3893 
*END

*D_NET *7 0.0147965
*CONN
*P gpio_defaults[3] I
*I *330:B I *D sky130_fd_sc_hd__or2_0
*I *331:B I *D sky130_fd_sc_hd__nand2b_2
*I *186:DIODE I *D sky130_fd_sc_hd__diode_2
*I *188:DIODE I *D sky130_fd_sc_hd__diode_2
*CAP
1 gpio_defaults[3] 0.000102396
2 *330:B 0.00139307
3 *331:B 0
4 *186:DIODE 0.000659302
5 *188:DIODE 0.000269536
6 *7:19 0.00253649
7 *7:11 0.00251069
8 *7:7 0.0023985
9 *186:DIODE *185:DIODE 0.000122366
10 *186:DIODE *440:A 0.000163168
11 *186:DIODE *34:25 2.29454e-05
12 *186:DIODE *35:10 0.000219249
13 *188:DIODE *8:19 0.00042611
14 *188:DIODE *61:11 8.21137e-05
15 *330:B *33:18 2.42295e-05
16 *330:B *116:41 0.00124692
17 *330:B *116:45 1.37669e-05
18 *7:7 *8:11 0
19 *7:11 *414:A 0.000138453
20 *7:11 *435:A 6.00269e-05
21 *7:11 *124:13 0
22 *7:11 *129:15 0.000115134
23 *7:19 *8:19 0.000778329
24 *7:19 *95:14 4.47546e-05
25 *7:19 *98:17 5.37732e-05
26 *7:19 *129:15 0.000214508
27 *200:DIODE *186:DIODE 5.31465e-05
28 *4:22 *186:DIODE 3.00829e-05
29 *5:11 *330:B 0.000745519
30 *5:11 *7:11 0.000307806
31 *6:7 *7:7 6.41465e-05
32 *6:13 *7:11 0
*RES
1 gpio_defaults[3] *7:7 6.53571 
2 *7:7 *7:11 20.2679 
3 *7:11 *7:19 43.5536 
4 *7:19 *188:DIODE 20.8536 
5 *7:19 *186:DIODE 26.6571 
6 *7:11 *331:B 13.8 
7 *7:7 *330:B 27.4071 
*END

*D_NET *8 0.0186251
*CONN
*P gpio_defaults[4] I
*I *189:DIODE I *D sky130_fd_sc_hd__diode_2
*I *332:B I *D sky130_fd_sc_hd__or2_0
*I *190:DIODE I *D sky130_fd_sc_hd__diode_2
*I *333:B I *D sky130_fd_sc_hd__nand2b_2
*CAP
1 gpio_defaults[4] 0.000828777
2 *189:DIODE 0.00132728
3 *332:B 8.43799e-05
4 *190:DIODE 0.000106076
5 *333:B 0.000424997
6 *8:35 0.00237754
7 *8:19 0.00167434
8 *8:11 0.00293793
9 *189:DIODE pad_gpio_vtrip_sel 0
10 *189:DIODE *317:A_N 6.08467e-05
11 *189:DIODE *326:A 4.39881e-05
12 *189:DIODE *12:29 0.00150088
13 *189:DIODE *33:18 1.5714e-05
14 *189:DIODE *34:16 0.000487327
15 *189:DIODE *42:27 0.000175216
16 *189:DIODE *54:16 4.11277e-05
17 *189:DIODE *157:27 2.38966e-05
18 *190:DIODE *53:7 0.000145849
19 *332:B *332:A 6.08467e-05
20 *332:B *365:RESET_B 4.29314e-06
21 *332:B *376:RESET_B 0.000203604
22 *332:B *396:A 1.5714e-05
23 *332:B *12:29 4.19401e-06
24 *333:B *325:A_N 4.76161e-06
25 *333:B *53:7 0.000267964
26 *333:B *114:59 9.43222e-06
27 *333:B *116:57 3.62662e-06
28 *333:B *116:65 3.62662e-06
29 *8:11 *373:CLK 5.98422e-05
30 *8:11 *375:CLK 4.90273e-05
31 *8:11 *386:RESET_B 0.000702433
32 *8:11 *9:14 0
33 *8:11 *96:66 5.43153e-05
34 *8:19 *373:CLK 1.93666e-05
35 *8:19 *386:RESET_B 0.00102216
36 *8:19 *392:A 0.000280206
37 *8:19 *408:A 1.07549e-05
38 *8:19 *9:35 0.000200635
39 *8:19 *95:14 0.000329912
40 *8:19 *96:66 3.50296e-05
41 *8:19 *114:59 6.95527e-05
42 *8:19 *116:77 0.000304493
43 *8:19 *119:18 0.000626698
44 *8:19 *157:21 0.000115166
45 *8:35 pad_gpio_vtrip_sel 0
46 *8:35 *183:DIODE 8.50938e-05
47 *8:35 *12:29 0.000144531
48 *8:35 *13:42 7.42411e-05
49 *8:35 *157:27 0.000116375
50 *188:DIODE *8:19 0.00042611
51 *2:36 *189:DIODE 0.00015607
52 *6:20 *333:B 0.000130556
53 *7:7 *8:11 0
54 *7:19 *8:19 0.000778329
*RES
1 gpio_defaults[4] *8:11 17.0625 
2 *8:11 *8:19 41.6696 
3 *8:19 *333:B 14.9786 
4 *8:19 *190:DIODE 10.6571 
5 *8:11 *8:35 5.33073 
6 *8:35 *332:B 19.2546 
7 *8:35 *189:DIODE 23.8836 
*END

*D_NET *9 0.0146623
*CONN
*P gpio_defaults[5] I
*I *342:B I *D sky130_fd_sc_hd__or2_0
*I *202:DIODE I *D sky130_fd_sc_hd__diode_2
*I *201:DIODE I *D sky130_fd_sc_hd__diode_2
*I *343:B I *D sky130_fd_sc_hd__nand2b_2
*CAP
1 gpio_defaults[5] 0.00131171
2 *342:B 0.000354222
3 *202:DIODE 0
4 *201:DIODE 0.00039112
5 *343:B 0.000106404
6 *9:37 0.000462662
7 *9:35 0.00102246
8 *9:14 0.00201481
9 *201:DIODE *370:CLK_N 0.00105824
10 *201:DIODE *440:A 4.5408e-05
11 *201:DIODE *441:A 0.00019346
12 *201:DIODE *39:15 0.000216458
13 *201:DIODE *114:59 0.000100222
14 *342:B *97:5 6.64392e-05
15 *342:B *114:35 0.000877112
16 *342:B *114:59 6.08467e-05
17 *343:B *343:A_N 0.000255248
18 *343:B *370:SET_B 1.65872e-05
19 *343:B *393:A 6.08467e-05
20 *9:14 *365:CLK_N 0.000185193
21 *9:14 *370:SET_B 0.000587064
22 *9:14 *373:CLK 0.000643916
23 *9:14 *10:7 0
24 *9:14 *96:25 0.000342667
25 *9:14 *157:21 0.000364709
26 *9:35 *371:CLK_N 0.000410322
27 *9:35 *378:RESET_B 2.86829e-05
28 *9:35 *386:RESET_B 8.18248e-05
29 *9:35 *391:A 2.67514e-05
30 *9:35 *392:A 0.000515705
31 *9:35 *114:66 0.000218651
32 *9:35 *114:87 0.000568166
33 *9:35 *158:46 0.00040754
34 *9:37 *392:A 1.03594e-05
35 *9:37 *440:A 3.26102e-05
36 *9:37 *114:59 3.05765e-05
37 *9:37 *114:66 2.86829e-05
38 *9:37 *119:18 4.92017e-06
39 *5:11 *9:14 3.90219e-05
40 *5:17 *9:14 0.00132
41 *8:11 *9:14 0
42 *8:19 *9:35 0.000200635
*RES
1 gpio_defaults[5] *9:14 37.6071 
2 *9:14 *343:B 11.8893 
3 *9:14 *9:35 39.7857 
4 *9:35 *9:37 1.64286 
5 *9:37 *201:DIODE 25.8179 
6 *9:37 *202:DIODE 13.8 
7 *9:35 *342:B 21.7286 
*END

*D_NET *10 0.0138958
*CONN
*P gpio_defaults[6] I
*I *203:DIODE I *D sky130_fd_sc_hd__diode_2
*I *344:B I *D sky130_fd_sc_hd__or2_0
*I *345:B I *D sky130_fd_sc_hd__nand2b_2
*I *204:DIODE I *D sky130_fd_sc_hd__diode_2
*CAP
1 gpio_defaults[6] 0.000782962
2 *203:DIODE 0
3 *344:B 0.000200175
4 *345:B 0
5 *204:DIODE 0.000490152
6 *10:42 0.000748552
7 *10:18 0.00107982
8 *10:7 0.00192101
9 *204:DIODE *206:DIODE 3.82228e-05
10 *204:DIODE *313:A 6.3657e-05
11 *204:DIODE *371:CLK_N 0.000110297
12 *204:DIODE *440:A 0.000630547
13 *204:DIODE *63:10 0.000259547
14 *204:DIODE *114:59 6.0414e-05
15 *204:DIODE *116:81 0.000108704
16 *344:B *344:A 0.000156946
17 *344:B *383:CLK 8.6297e-06
18 *344:B *409:A 3.82228e-05
19 *344:B *428:A 0.000141654
20 *344:B *132:6 0.000394371
21 *10:7 *364:D 0.000228184
22 *10:7 *376:D 0.00051234
23 *10:7 *377:D 0.000147874
24 *10:7 *11:11 0.000155281
25 *10:7 *12:12 0
26 *10:7 *137:9 0.000994472
27 *10:7 *141:12 0.000181934
28 *10:18 *206:DIODE 2.07503e-05
29 *10:18 *313:A 0.000351444
30 *10:18 *365:D 5.1584e-05
31 *10:18 *371:CLK_N 6.08467e-05
32 *10:18 *96:19 0.000351188
33 *10:18 *137:9 0.000828749
34 *10:18 *151:8 6.1664e-05
35 *10:42 pad_gpio_vtrip_sel 0.00114604
36 *10:42 *326:A 3.51785e-06
37 *10:42 *383:CLK 7.12632e-06
38 *10:42 *132:6 1.00004e-05
39 *10:42 *157:27 8.88096e-05
40 *3:28 *344:B 0.000206147
41 *5:11 *10:7 3.39313e-06
42 *5:17 *204:DIODE 0.000832992
43 *5:17 *10:7 4.55197e-05
44 *5:17 *10:18 0.000372067
45 *9:14 *10:7 0
*RES
1 gpio_defaults[6] *10:7 20.8482 
2 *10:7 *10:18 21.3839 
3 *10:18 *204:DIODE 33.925 
4 *10:18 *345:B 9.3 
5 *10:7 *10:42 8.65719 
6 *10:42 *344:B 20.4429 
7 *10:42 *203:DIODE 13.8 
*END

*D_NET *11 0.0127741
*CONN
*P gpio_defaults[7] I
*I *347:B I *D sky130_fd_sc_hd__nand2b_2
*I *205:DIODE I *D sky130_fd_sc_hd__diode_2
*I *346:B I *D sky130_fd_sc_hd__or2_0
*I *206:DIODE I *D sky130_fd_sc_hd__diode_2
*CAP
1 gpio_defaults[7] 0.00115703
2 *347:B 0
3 *205:DIODE 0.000360053
4 *346:B 2.1308e-05
5 *206:DIODE 0.000577171
6 *11:44 0.000793376
7 *11:29 0.0010548
8 *11:11 0.00233437
9 *205:DIODE *360:SET_B 0.000110458
10 *205:DIODE *388:TE_B 1.22742e-05
11 *205:DIODE *98:17 5.04829e-06
12 *205:DIODE *117:17 4.78251e-05
13 *205:DIODE *145:24 2.3301e-05
14 *206:DIODE *345:A_N 1.03403e-05
15 *206:DIODE *365:SET_B 0.00031431
16 *206:DIODE *366:SET_B 0.000310818
17 *206:DIODE *371:CLK_N 1.78704e-05
18 *206:DIODE *371:D 2.22974e-05
19 *206:DIODE *371:SET_B 5.70034e-06
20 *11:11 *365:SET_B 0.000626173
21 *11:11 *366:SET_B 0.000959863
22 *11:11 *433:A 1.09755e-05
23 *11:11 *12:12 1.97517e-05
24 *11:11 *13:18 5.59112e-05
25 *11:11 *111:8 0.00119791
26 *11:11 *137:9 0.000936014
27 *11:29 *380:RESET_B 1.31768e-05
28 *11:29 *403:A 0.000437002
29 *11:29 *14:13 7.58194e-05
30 *11:29 *32:15 4.59816e-06
31 *11:29 *114:31 8.60778e-05
32 *11:29 *115:31 5.76421e-05
33 *11:44 *347:A_N 9.86288e-05
34 *11:44 *367:D 0.000141062
35 *11:44 *372:RESET_B 3.17103e-05
36 *11:44 *403:A 0.000190903
37 *11:44 *115:31 1.7883e-05
38 *11:44 *117:17 0.000162857
39 *204:DIODE *206:DIODE 3.82228e-05
40 *323:B *205:DIODE 3.04436e-05
41 *323:B *11:44 0.000227083
42 *10:7 *11:11 0.000155281
43 *10:18 *206:DIODE 2.07503e-05
*RES
1 gpio_defaults[7] *11:11 42.0714 
2 *11:11 *206:DIODE 22.925 
3 *11:11 *11:29 22.4821 
4 *11:29 *346:B 9.72857 
5 *11:29 *11:44 14.1786 
6 *11:44 *205:DIODE 18.2464 
7 *11:44 *347:B 13.8 
*END

*D_NET *12 0.013863
*CONN
*P gpio_defaults[8] I
*I *182:DIODE I *D sky130_fd_sc_hd__diode_2
*I *181:DIODE I *D sky130_fd_sc_hd__diode_2
*I *327:B I *D sky130_fd_sc_hd__nand2b_2
*I *326:B I *D sky130_fd_sc_hd__or2_0
*CAP
1 gpio_defaults[8] 0.000791071
2 *182:DIODE 0.000391686
3 *181:DIODE 0.000492728
4 *327:B 6.08033e-05
5 *326:B 0.000210584
6 *12:43 0.00122618
7 *12:29 0.00126761
8 *12:12 0.00186669
9 *181:DIODE *173:DIODE 7.97866e-05
10 *181:DIODE *321:B1 0.000348958
11 *181:DIODE *328:B 2.16355e-05
12 *181:DIODE *406:A 6.08467e-05
13 *181:DIODE *13:47 0.000214506
14 *181:DIODE *102:14 0.0003456
15 *181:DIODE *103:11 0.000214506
16 *182:DIODE *13:47 4.83709e-05
17 *182:DIODE *42:10 8.76222e-05
18 *182:DIODE *100:22 1.31872e-05
19 *182:DIODE *103:11 0.000408726
20 *326:B *365:RESET_B 3.05074e-05
21 *326:B *377:RESET_B 6.08467e-05
22 *326:B *34:25 0
23 *326:B *114:17 0.000142909
24 *326:B *114:31 2.43314e-05
25 *327:B *312:A 2.57986e-05
26 *327:B *67:10 5.49916e-05
27 *327:B *120:81 2.16355e-05
28 *12:12 *364:SET_B 9.0951e-05
29 *12:12 *366:SET_B 0.00018016
30 *12:12 *376:RESET_B 4.00648e-05
31 *12:12 *415:A 0.000308899
32 *12:12 *13:18 0.000826633
33 *12:12 *52:15 5.6692e-05
34 *12:12 *53:16 0.000332666
35 *12:12 *111:8 5.48032e-05
36 *12:12 *143:10 0.00025527
37 *12:29 *396:A 4.19401e-06
38 *12:29 *13:42 0.00059869
39 *12:29 *34:16 0.000187993
40 *12:29 *34:25 0
41 *12:43 serial_data_out 0
42 *12:43 *13:42 8.12259e-06
43 *12:43 *34:16 0.000563422
44 *189:DIODE *12:29 0.00150088
45 *332:B *12:29 4.19401e-06
46 *340:B *182:DIODE 0.000118017
47 *2:36 *327:B 5.49916e-05
48 *8:35 *12:29 0.000144531
49 *10:7 *12:12 0
50 *11:11 *12:12 1.97517e-05
*RES
1 gpio_defaults[8] *12:12 29.5714 
2 *12:12 *326:B 17.5143 
3 *12:12 *12:29 8.05905 
4 *12:29 *327:B 18.6296 
5 *12:29 *12:43 4.24973 
6 *12:43 *181:DIODE 34.0232 
7 *12:43 *182:DIODE 20.8982 
*END

*D_NET *13 0.022828
*CONN
*P gpio_defaults[9] I
*I *329:B I *D sky130_fd_sc_hd__nand2b_2
*I *328:B I *D sky130_fd_sc_hd__or2_0
*I *184:DIODE I *D sky130_fd_sc_hd__diode_2
*I *183:DIODE I *D sky130_fd_sc_hd__diode_2
*CAP
1 gpio_defaults[9] 0.000659504
2 *329:B 0.000174467
3 *328:B 3.69009e-05
4 *184:DIODE 0.000425068
5 *183:DIODE 0.00133076
6 *13:65 0.00206427
7 *13:47 0.00185946
8 *13:42 0.00204394
9 *13:18 0.00367638
10 *183:DIODE serial_data_out 3.05509e-05
11 *183:DIODE *364:CLK_N 0.000115153
12 *183:DIODE *374:RESET_B 5.58964e-05
13 *183:DIODE *414:A 0.000253345
14 *183:DIODE *38:8 4.69495e-06
15 *184:DIODE pad_gpio_ana_pol 2.77625e-06
16 *184:DIODE *367:RESET_B 5.04829e-06
17 *184:DIODE *404:A 6.64671e-06
18 *184:DIODE *145:17 0.000396051
19 *328:B *103:11 1.94472e-05
20 *329:B *314:A_N 0.000136437
21 *329:B *329:A_N 6.08467e-05
22 *329:B *118:37 0.000346665
23 *13:18 serial_data_out 4.57485e-06
24 *13:18 *52:15 0.000206696
25 *13:18 *111:8 0.000683064
26 *13:42 serial_data_out 6.50851e-05
27 *13:42 *314:A_N 0.000480689
28 *13:42 *67:10 3.55378e-05
29 *13:47 *42:10 0.000108286
30 *13:47 *102:14 1.09644e-05
31 *13:47 *103:11 1.64597e-05
32 *13:65 pad_gpio_dm[1] 1.41432e-05
33 *13:65 *212:DIODE 0.00132335
34 *13:65 *311:A 0.00013538
35 *13:65 *316:A1 0.000205476
36 *13:65 *367:RESET_B 0.00108195
37 *13:65 *367:SET_B 6.08467e-05
38 *13:65 *369:SET_B 0.000157159
39 *13:65 *404:A 7.45722e-06
40 *13:65 *26:8 1.2014e-05
41 *13:65 *42:27 0.000278697
42 *13:65 *103:11 0.000552676
43 *13:65 *109:11 2.37991e-05
44 *13:65 *120:27 3.96696e-05
45 *176:DIODE *13:65 1.41473e-05
46 *181:DIODE *328:B 2.16355e-05
47 *181:DIODE *13:47 0.000214506
48 *182:DIODE *13:47 4.83709e-05
49 *2:36 *13:18 0
50 *2:36 *13:42 0.00124563
51 *2:41 *13:47 0.000174794
52 *2:41 *13:65 0.000142561
53 *2:46 *13:65 0.000109421
54 *8:35 *183:DIODE 8.50938e-05
55 *8:35 *13:42 7.42411e-05
56 *11:11 *13:18 5.59112e-05
57 *12:12 *13:18 0.000826633
58 *12:29 *13:42 0.00059869
59 *12:43 *13:42 8.12259e-06
*RES
1 gpio_defaults[9] *13:18 28.5126 
2 *13:18 *183:DIODE 25.6198 
3 *13:18 *13:42 16.1206 
4 *13:42 *13:47 9.5625 
5 *13:47 *13:65 49.7283 
6 *13:65 *184:DIODE 19.3982 
7 *13:47 *328:B 14.6125 
8 *13:42 *329:B 13.8714 
*END

*D_NET *14 0.0112958
*CONN
*P mgmt_gpio_in O
*I *388:Z O *D sky130_fd_sc_hd__ebufn_8
*CAP
1 mgmt_gpio_in 0.000908499
2 *388:Z 0.00218301
3 *14:13 0.00309151
4 mgmt_gpio_in one 0.000470254
5 mgmt_gpio_in pad_gpio_ana_pol 0.000544517
6 mgmt_gpio_in pad_gpio_dm[0] 0.00013411
7 mgmt_gpio_in pad_gpio_inenb 0.00059301
8 mgmt_gpio_in pad_gpio_outenb 0.000272231
9 mgmt_gpio_in zero 0.000470254
10 mgmt_gpio_in *16:11 0.000446453
11 mgmt_gpio_in *18:5 0.000236302
12 mgmt_gpio_in *118:25 0
13 *14:13 *371:RESET_B 5.481e-05
14 *14:13 *388:A 7.13972e-05
15 *14:13 *388:TE_B 0.000806943
16 *14:13 *428:A 5.99857e-06
17 *14:13 *39:15 4.97617e-05
18 *14:13 *39:27 0
19 *14:13 *40:7 0.000103099
20 *14:13 *42:27 0.000107496
21 *14:13 *81:13 0.000393293
22 *14:13 *132:6 0.000116652
23 *14:13 *146:11 6.3657e-05
24 *3:31 *14:13 9.67059e-05
25 *11:29 *14:13 7.58194e-05
*RES
1 *388:Z *14:13 48.1393 