*SPEF "ieee 1481-1999"
*DESIGN "gpio_control_block"
*DATE "11:11:11 Fri 11 11, 1111"
*VENDOR "OpenRCX"
*PROGRAM "Parallel Extraction"
*VERSION "1.0"
*DESIGN_FLOW "NAME_SCOPE LOCAL" "PIN_CAP NONE"
*DIVIDER /
*DELIMITER :
*BUS_DELIMITER []
*T_UNIT 1 NS
*C_UNIT 1 PF
*R_UNIT 1 OHM
*L_UNIT 1 HENRY

*NAME_MAP
*1 gpio_defaults[0]
*2 gpio_defaults[10]
*3 gpio_defaults[11]
*4 gpio_defaults[12]
*5 gpio_defaults[1]
*6 gpio_defaults[2]
*7 gpio_defaults[3]
*8 gpio_defaults[4]
*9 gpio_defaults[5]
*10 gpio_defaults[6]
*11 gpio_defaults[7]
*12 gpio_defaults[8]
*13 gpio_defaults[9]
*14 mgmt_gpio_in
*15 mgmt_gpio_oeb
*16 mgmt_gpio_out
*17 one
*18 pad_gpio_ana_en
*19 pad_gpio_ana_pol
*20 pad_gpio_ana_sel
*21 pad_gpio_dm[0]
*22 pad_gpio_dm[1]
*23 pad_gpio_dm[2]
*24 pad_gpio_holdover
*25 pad_gpio_ib_mode_sel
*26 pad_gpio_in
*27 pad_gpio_inenb
*28 pad_gpio_out
*29 pad_gpio_outenb
*30 pad_gpio_slow_sel
*31 pad_gpio_vtrip_sel
*32 resetn
*33 resetn_out
*34 serial_clock
*35 serial_clock_out
*36 serial_data_in
*37 serial_data_out
*38 serial_load
*39 serial_load_out
*40 user_gpio_in
*41 user_gpio_oeb
*42 user_gpio_out
*47 zero
*48 _000_
*49 _001_
*50 _002_
*51 _003_
*52 _004_
*53 _005_
*54 _006_
*55 _007_
*56 _008_
*57 _009_
*58 _010_
*59 _011_
*60 _012_
*61 _013_
*62 _014_
*63 _015_
*64 _016_
*65 _017_
*66 _018_
*67 _019_
*68 _020_
*69 _021_
*70 _022_
*71 _023_
*72 _024_
*73 _025_
*74 _026_
*75 _027_
*76 _028_
*77 _029_
*78 _030_
*79 _031_
*80 _032_
*81 _033_
*82 _034_
*83 _035_
*84 _036_
*85 _037_
*86 _038_
*87 _039_
*88 _040_
*89 _041_
*90 _042_
*91 _043_
*92 _044_
*93 _045_
*94 _046_
*95 _047_
*96 _048_
*97 _049_
*98 _050_
*99 _051_
*100 _052_
*101 _053_
*102 _054_
*103 _055_
*104 _056_
*105 _057_
*106 _058_
*107 _059_
*108 _060_
*109 _061_
*110 _062_
*111 _063_
*112 _064_
*113 _065_
*114 _066_
*115 _067_
*116 _068_
*117 _069_
*118 _070_
*119 _071_
*120 _072_
*121 _073_
*122 _074_
*123 _075_
*124 _076_
*125 _077_
*126 _078_
*127 _079_
*128 _080_
*129 _081_
*130 _083_
*131 _084_
*132 _085_
*133 _086_
*134 _087_
*135 _088_
*136 _089_
*137 _090_
*138 _091_
*139 _092_
*140 _093_
*141 _094_
*142 _095_
*143 _096_
*144 _097_
*145 _098_
*146 _099_
*147 _100_
*148 _101_
*149 _102_
*150 _103_
*151 _104_
*152 _105_
*153 _106_
*154 _107_
*155 clknet_0_serial_clock
*156 clknet_1_0_0_serial_clock
*157 clknet_1_1_0_serial_clock
*158 gpio_logic1
*159 gpio_outenb
*160 mgmt_ena
*161 net1
*162 net10
*163 net11
*164 net12
*165 net13
*166 net14
*167 net15
*168 net16
*169 net17
*170 net18
*171 net19
*172 net2
*173 net20
*174 net21
*175 net22
*176 net23
*177 net24
*178 net25
*179 net26
*180 net27
*181 net28
*182 net29
*183 net3
*184 net30
*185 net31
*186 net32
*187 net33
*188 net34
*189 net35
*190 net36
*191 net37
*192 net38
*193 net39
*194 net4
*195 net40
*196 net41
*197 net42
*198 net43
*199 net44
*200 net45
*201 net46
*202 net47
*203 net48
*204 net49
*205 net5
*206 net50
*207 net51
*208 net52
*209 net53
*210 net54
*211 net55
*212 net56
*213 net57
*214 net58
*215 net59
*216 net6
*217 net60
*218 net61
*219 net7
*220 net8
*221 net9
*222 serial_data_pre
*223 shift_register\[0\]
*224 shift_register\[10\]
*225 shift_register\[11\]
*226 shift_register\[1\]
*227 shift_register\[2\]
*228 shift_register\[3\]
*229 shift_register\[4\]
*230 shift_register\[5\]
*231 shift_register\[6\]
*232 shift_register\[7\]
*233 shift_register\[8\]
*234 shift_register\[9\]
*235 ANTENNA_0
*236 ANTENNA_1
*237 ANTENNA_2
*238 ANTENNA_3
*239 ANTENNA_4
*240 ANTENNA_5
*241 ANTENNA_6
*242 ANTENNA_7
*243 FILLER_0_50
*244 FILLER_0_58
*245 FILLER_0_65
*246 FILLER_0_69
*247 FILLER_0_73
*248 FILLER_0_77
*249 FILLER_0_80
*250 FILLER_0_93
*251 FILLER_10_3
*252 FILLER_10_37
*253 FILLER_11_57
*254 FILLER_11_93
*255 FILLER_12_29
*256 FILLER_12_3
*257 FILLER_13_3
*258 FILLER_13_36
*259 FILLER_13_62
*260 FILLER_14_24
*261 FILLER_14_43
*262 FILLER_15_49
*263 FILLER_15_73
*264 FILLER_16_3
*265 FILLER_16_37
*266 FILLER_16_75
*267 FILLER_16_85
*268 FILLER_17_11
*269 FILLER_17_55
*270 FILLER_17_57
*271 FILLER_18_29
*272 FILLER_18_3
*273 FILLER_18_39
*274 FILLER_18_49
*275 FILLER_18_57
*276 FILLER_18_67
*277 FILLER_18_85
*278 FILLER_1_26
*279 FILLER_1_30
*280 FILLER_1_35
*281 FILLER_1_39
*282 FILLER_1_53
*283 FILLER_1_58
*284 FILLER_1_62
*285 FILLER_1_73
*286 FILLER_1_80
*287 FILLER_2_32
*288 FILLER_2_36
*289 FILLER_2_41
*290 FILLER_2_46
*291 FILLER_2_50
*292 FILLER_2_55
*293 FILLER_2_70
*294 FILLER_2_75
*295 FILLER_3_55
*296 FILLER_3_70
*297 FILLER_3_80
*298 FILLER_3_86
*299 FILLER_3_90
*300 FILLER_4_46
*301 FILLER_4_92
*302 FILLER_5_26
*303 FILLER_6_52
*304 FILLER_7_26
*305 FILLER_7_88
*306 FILLER_8_3
*307 FILLER_8_55
*308 FILLER_8_82
*309 FILLER_9_45
*310 PHY_0
*311 PHY_1
*312 PHY_10
*313 PHY_11
*314 PHY_12
*315 PHY_13
*316 PHY_14
*317 PHY_15
*318 PHY_16
*319 PHY_17
*320 PHY_18
*321 PHY_19
*322 PHY_2
*323 PHY_20
*324 PHY_21
*325 PHY_22
*326 PHY_23
*327 PHY_24
*328 PHY_25
*329 PHY_26
*330 PHY_27
*331 PHY_28
*332 PHY_29
*333 PHY_3
*334 PHY_30
*335 PHY_31
*336 PHY_32
*337 PHY_33
*338 PHY_34
*339 PHY_35
*340 PHY_36
*341 PHY_37
*342 PHY_4
*343 PHY_5
*344 PHY_6
*345 PHY_7
*346 PHY_8
*347 PHY_9
*348 TAP_38
*349 TAP_39
*350 TAP_40
*351 TAP_41
*352 TAP_42
*353 TAP_43
*354 TAP_44
*355 TAP_45
*356 TAP_46
*357 TAP_47
*358 TAP_48
*359 TAP_49
*360 TAP_50
*361 TAP_51
*362 TAP_52
*363 TAP_53
*364 TAP_54
*365 TAP_55
*366 TAP_56
*367 TAP_57
*368 TAP_58
*369 TAP_59
*370 TAP_60
*371 TAP_61
*372 TAP_62
*373 TAP_63
*374 TAP_64
*375 TAP_65
*376 _108_
*377 _109_
*378 _110_
*379 _111_
*380 _112_
*381 _113_
*382 _114_
*383 _115__1
*384 _115__2
*385 _115__3
*386 _115__4
*387 _115__5
*388 _116_
*389 _117_
*390 _118_
*391 _119_
*392 _120_
*393 _121_
*394 _122_
*395 _123_
*396 _124_
*397 _125_
*398 _126_
*399 _127_
*400 _128_
*401 _129_
*402 _130_
*403 _131_
*404 _132_
*405 _133_
*406 _134_
*407 _135_
*408 _136_
*409 _137_
*410 _138_
*411 _139_
*412 _140_
*413 _141_
*414 _142_
*415 _143_
*416 _144_
*417 _145_
*418 _146_
*419 _147_
*420 _148_
*421 _149_
*422 _150_
*423 _151_
*424 _152_
*425 _153_
*426 _154_
*427 _155_
*428 _156_
*429 _157_
*430 _158_
*431 _159_
*432 _160_
*433 _161_
*434 _162_
*435 _163_
*436 _164_
*437 _165_
*438 _166_
*439 _167_
*440 _168_
*441 _169_
*442 _170_
*443 _171_
*444 _172_
*445 _173_
*446 _174_
*447 _175_
*448 _176_
*449 _177_
*450 _178_
*451 _179_
*452 _180_
*453 _181_
*454 _182_
*455 _183_
*456 _184_
*457 _185_
*458 _186_
*459 _187_
*460 _188_
*461 _189_
*462 _190_
*463 _191_
*464 _192_
*465 _193_
*466 _194_
*467 _195_
*468 _196_
*469 _197_
*470 _198_
*471 _199_
*472 _200_
*473 _201_
*474 _202_
*475 _203_
*476 _204_
*477 _205_
*478 _206_
*479 _207_
*480 _208_
*481 _209_
*482 _210_
*483 _211_
*484 _212_
*485 _213_
*486 _214_
*487 _215_
*488 _216_
*489 _217_
*490 _218_
*491 _219_
*492 _220_
*493 _221_
*494 _222_
*495 _223_
*496 _224_
*497 _225_
*498 _226_
*499 _227_
*500 _228_
*501 _229_
*502 _230_
*503 _231_
*504 _232_
*505 _233_
*506 _234_
*507 _235_
*508 clkbuf_0_serial_clock
*509 clkbuf_1_0_0_serial_clock
*510 clkbuf_1_1_0_serial_clock
*511 const_source
*512 gpio_in_buf
*513 gpio_logic_high
*514 hold1
*515 hold10
*516 hold11
*517 hold12
*518 hold13
*519 hold14
*520 hold15
*521 hold16
*522 hold17
*523 hold18
*524 hold19
*525 hold2
*526 hold3
*527 hold4
*528 hold5
*529 hold6
*530 hold7
*531 hold8
*532 hold9
*533 input1
*534 input10
*535 input11
*536 input12
*537 input13
*538 input14
*539 input15
*540 input16
*541 input17
*542 input18
*543 input19
*544 input2
*545 input20
*546 input3
*547 input4
*548 input5
*549 input6
*550 input7
*551 input8
*552 input9
*553 output21
*554 output22
*555 output23
*556 output24
*557 output25
*558 output26
*559 output27
*560 output28
*561 output29
*562 output30
*563 output31
*564 output32
*565 output33
*566 output34
*567 output35
*568 output36
*569 output37

*PORTS
gpio_defaults[0] I
gpio_defaults[10] I
gpio_defaults[11] I
gpio_defaults[12] I
gpio_defaults[1] I
gpio_defaults[2] I
gpio_defaults[3] I
gpio_defaults[4] I
gpio_defaults[5] I
gpio_defaults[6] I
gpio_defaults[7] I
gpio_defaults[8] I
gpio_defaults[9] I
mgmt_gpio_in O
mgmt_gpio_oeb I
mgmt_gpio_out I
one O
pad_gpio_ana_en O
pad_gpio_ana_pol O
pad_gpio_ana_sel O
pad_gpio_dm[0] O
pad_gpio_dm[1] O
pad_gpio_dm[2] O
pad_gpio_holdover O
pad_gpio_ib_mode_sel O
pad_gpio_in I
pad_gpio_inenb O
pad_gpio_out O
pad_gpio_outenb O
pad_gpio_slow_sel O
pad_gpio_vtrip_sel O
resetn I
resetn_out O
serial_clock I
serial_clock_out O
serial_data_in I
serial_data_out O
serial_load I
serial_load_out O
user_gpio_in O
user_gpio_oeb I
user_gpio_out I
zero O

*D_NET *1 0.00797178
*CONN
*P gpio_defaults[0] I
*I *533:A I *D sky130_fd_sc_hd__clkbuf_1
*CAP
1 gpio_defaults[0] 0.000535271
2 *533:A 0.000912486
3 *1:11 0.00295604
4 *1:10 0.00257882
5 *533:A *547:A 0.00044681
6 *533:A *5:34 0.000302188
7 *533:A *8:46 0.000159903
8 *533:A *161:19 2.82368e-05
9 *533:A *162:15 5.20308e-05
10 *1:10 *5:14 0
11 *1:10 *58:9 0
12 *1:11 *530:A 0
13 *1:11 *4:27 0
*RES
1 gpio_defaults[0] *1:10 22.8977 
2 *1:10 *1:11 57.891 
3 *1:11 *533:A 40.6595 
*END

*D_NET *2 0.0119526
*CONN
*P gpio_defaults[10] I
*I *544:A I *D sky130_fd_sc_hd__clkbuf_1
*CAP
1 gpio_defaults[10] 0.00106671
2 *544:A 1.5632e-05
3 *2:29 0.00132765
4 *2:15 0.00237872
5 *544:A *547:A 0.000113254
6 *544:A *5:34 0.000115157
7 *2:15 *488:D 7.35702e-05
8 *2:15 *488:SET_B 3.39604e-05
9 *2:15 *497:RESET_B 0.000117224
10 *2:15 *3:14 0
11 *2:15 *8:18 0.000333232
12 *2:15 *10:7 8.67213e-05
13 *2:15 *11:10 8.59507e-05
14 *2:15 *13:18 0
15 *2:15 *13:28 0.000277186
16 *2:15 *38:28 8.32204e-06
17 *2:15 *61:11 0.000891247
18 *2:15 *62:15 2.76667e-05
19 *2:15 *63:11 0.000895459
20 *2:15 *106:22 0.000104001
21 *2:15 *113:17 0.000172034
22 *2:15 *169:193 0.000318623
23 *2:15 *205:13 0.000110798
24 *2:29 *474:A 0.000504263
25 *2:29 *486:RESET_B 0.000335063
26 *2:29 *487:D 1.97639e-05
27 *2:29 *487:SET_B 0.000410203
28 *2:29 *500:D 0.000174957
29 *2:29 *501:CLK 0.000355665
30 *2:29 *537:A 0
31 *2:29 *8:46 0.00078179
32 *2:29 *9:9 0.000248082
33 *2:29 *38:41 1.09113e-05
34 *2:29 *118:19 1.08339e-05
35 *2:29 *126:16 0.000281357
36 *2:29 *126:23 0.000171395
37 *2:29 *161:19 1.9939e-05
38 *2:29 *165:11 2.37937e-05
39 *2:29 *172:29 3.05037e-05
40 *2:29 *188:17 2.09501e-05
*RES
1 gpio_defaults[10] *2:15 47.9945 
2 *2:15 *2:29 48.051 
3 *2:29 *544:A 15.0271 
*END

*D_NET *3 0.011462
*CONN
*P gpio_defaults[11] I
*I *546:A I *D sky130_fd_sc_hd__clkbuf_1
*CAP
1 gpio_defaults[11] 0.00108482
2 *546:A 0.000319478
3 *3:30 0.00162483
4 *3:14 0.00239017
5 *546:A *402:B_N 1.0326e-05
6 *546:A *492:RESET_B 6.96979e-05
7 *546:A *551:A 0.000132503
8 *546:A *173:16 0
9 *546:A *183:8 3.82228e-05
10 *546:A *216:21 0.000231838
11 *3:14 *377:A 6.2497e-05
12 *3:14 *382:A 0.000304152
13 *3:14 *485:SET_B 0
14 *3:14 *527:A 0.00021217
15 *3:14 *4:26 0.000333293
16 *3:14 *13:18 2.41274e-06
17 *3:14 *65:13 1.77894e-05
18 *3:14 *103:31 1.0758e-05
19 *3:14 *118:19 0.00028368
20 *3:14 *125:26 0.000353783
21 *3:14 *126:11 0.000258707
22 *3:14 *128:28 1.42337e-05
23 *3:14 *128:43 0.000284062
24 *3:14 *157:28 0.000318832
25 *3:14 *163:44 6.3226e-05
26 *3:30 *395:B_N 0.000229271
27 *3:30 *493:SET_B 0.000208728
28 *3:30 *504:D 0.000206788
29 *3:30 *553:A 0
30 *3:30 *8:38 0.000616308
31 *3:30 *12:11 0.000422171
32 *3:30 *12:22 4.60375e-07
33 *3:30 *92:10 2.25583e-07
34 *3:30 *163:16 0.000427737
35 *3:30 *163:44 0.000403944
36 *3:30 *164:32 0.000125234
37 *3:30 *212:10 0.000265477
38 *3:30 *216:41 3.90599e-05
39 *3:30 *221:6 9.5132e-05
40 *2:15 *3:14 0
*RES
1 gpio_defaults[11] *3:14 42.7694 
2 *3:14 *3:30 49.9048 
3 *3:30 *546:A 22.062 
*END

*D_NET *4 0.0156657
*CONN
*P gpio_defaults[12] I
*I *547:A I *D sky130_fd_sc_hd__clkbuf_1
*CAP
1 gpio_defaults[12] 0.00226537
2 *547:A 0.000506847
3 *4:27 0.00207207
4 *4:26 0.0038306
5 *547:A *537:A 6.3657e-05
6 *547:A *550:A 0
7 *547:A *552:A 0.000498645
8 *547:A *5:34 0.000308352
9 *547:A *219:7 2.30636e-05
10 *4:26 *424:A 8.71473e-06
11 *4:26 *449:B 1.97111e-05
12 *4:26 *482:CLK_N 0.000136537
13 *4:26 *483:SET_B 0
14 *4:26 *484:SET_B 0
15 *4:26 *498:RESET_B 0.000345999
16 *4:26 *11:10 0.000142113
17 *4:26 *55:26 4.78554e-06
18 *4:26 *60:20 0.00141467
19 *4:26 *63:11 0.000134832
20 *4:26 *64:13 0.000256285
21 *4:26 *103:8 4.29019e-05
22 *4:26 *103:10 1.22289e-05
23 *4:26 *103:59 4.08597e-05
24 *4:26 *109:19 5.02897e-05
25 *4:26 *112:21 7.02125e-05
26 *4:26 *128:43 9.51738e-05
27 *4:26 *204:22 8.08437e-05
28 *4:26 *216:41 0.000216143
29 *4:26 *228:13 0.00110388
30 *4:27 *499:D 0.000103946
31 *4:27 *530:A 2.0119e-05
32 *4:27 *69:16 0.000903487
33 *533:A *547:A 0.00044681
34 *544:A *547:A 0.000113254
35 *1:11 *4:27 0
36 *3:14 *4:26 0.000333293
*RES
1 gpio_defaults[12] *4:26 46.0572 
2 *4:26 *4:27 50.2089 
3 *4:27 *547:A 34.6312 
*END

*D_NET *5 0.0116033
*CONN
*P gpio_defaults[1] I
*I *548:A I *D sky130_fd_sc_hd__clkbuf_1
*CAP
1 gpio_defaults[1] 0.00108564
2 *548:A 0
3 *5:34 0.000943595
4 *5:24 0.00160095
5 *5:14 0.00174299
6 *5:14 *454:A 0.000198246
7 *5:14 *457:A 0
8 *5:14 *460:A 2.41961e-05
9 *5:14 *486:CLK_N 5.481e-05
10 *5:14 *497:CLK 8.36429e-06
11 *5:14 *499:D 0.000704679
12 *5:14 *530:A 0.000242522
13 *5:14 *6:19 0
14 *5:14 *55:26 0.000556365
15 *5:14 *56:7 0.000110458
16 *5:14 *58:9 9.82083e-05
17 *5:14 *204:22 6.23592e-05
18 *5:24 *387:A 0.000183676
19 *5:24 *388:A 3.74524e-05
20 *5:24 *413:A 0.000305054
21 *5:24 *6:26 0.000100956
22 *5:24 *7:15 1.44751e-05
23 *5:24 *38:56 2.1667e-05
24 *5:24 *48:19 3.52873e-06
25 *5:24 *89:9 0.000247677
26 *5:24 *156:8 8.70662e-06
27 *5:24 *156:12 7.95174e-05
28 *5:24 *190:24 4.17325e-05
29 *5:34 *537:A 6.64392e-05
30 *5:34 *550:A 8.94761e-05
31 *5:34 *552:A 6.91907e-05
32 *5:34 *6:32 0.000152139
33 *5:34 *172:15 0.000840685
34 *5:34 *220:32 0.00118182
35 *533:A *5:34 0.000302188
36 *544:A *5:34 0.000115157
37 *547:A *5:34 0.000308352
38 *1:10 *5:14 0
*RES
1 gpio_defaults[1] *5:14 46.5255 
2 *5:14 *5:24 27.8291 
3 *5:24 *5:34 44.5041 
4 *5:34 *548:A 9.24915 
*END

*D_NET *6 0.0137014
*CONN
*P gpio_defaults[2] I
*I *549:A I *D sky130_fd_sc_hd__clkbuf_1
*CAP
1 gpio_defaults[2] 0.000954348
2 *549:A 0.000357342
3 *6:32 0.00103439
4 *6:26 0.0016687
5 *6:19 0.001946
6 *549:A *550:A 0.000144525
7 *549:A *552:A 8.859e-05
8 *549:A *567:A 0.000117376
9 *549:A *39:18 0
10 *549:A *42:18 4.12811e-05
11 *549:A *194:12 0
12 *6:19 *427:A 2.58757e-05
13 *6:19 *434:A 0.000151494
14 *6:19 *451:A 0.000831511
15 *6:19 *454:A 1.59906e-05
16 *6:19 *458:A 3.77659e-05
17 *6:19 *486:RESET_B 0.000239549
18 *6:19 *497:CLK 0.000168319
19 *6:19 *7:15 0
20 *6:19 *55:26 1.32815e-05
21 *6:19 *61:8 5.86334e-05
22 *6:19 *156:38 0.000342449
23 *6:19 *156:51 0.000146519
24 *6:26 *458:A 0.000198469
25 *6:26 *462:A 4.64038e-06
26 *6:26 *486:CLK_N 1.22289e-05
27 *6:26 *486:RESET_B 5.98982e-05
28 *6:26 *54:23 3.93673e-05
29 *6:26 *55:26 1.93511e-06
30 *6:26 *69:16 0
31 *6:26 *121:25 0.000143027
32 *6:26 *123:18 4.78554e-05
33 *6:26 *156:8 4.08919e-05
34 *6:26 *156:12 3.32713e-05
35 *6:32 *512:TE 0.00010795
36 *6:32 *550:A 0.00114891
37 *6:32 *7:19 0.0016381
38 *6:32 *194:12 0.000360313
39 *6:32 *220:32 0.00122747
40 *5:14 *6:19 0
41 *5:24 *6:26 0.000100956
42 *5:34 *6:32 0.000152139
*RES
1 gpio_defaults[2] *6:19 40.5892 
2 *6:19 *6:26 31.4276 
3 *6:26 *6:32 49.9176 
4 *6:32 *549:A 23.1204 
*END

*D_NET *7 0.0111868
*CONN
*P gpio_defaults[3] I
*I *550:A I *D sky130_fd_sc_hd__clkbuf_1
*CAP
1 gpio_defaults[3] 0.00134823
2 *550:A 0.000505097
3 *7:19 0.00132098
4 *7:15 0.00216412
5 *550:A *172:15 6.38081e-06
6 *550:A *194:12 2.30636e-05
7 *7:15 pad_gpio_out 2.25583e-07
8 *7:15 *387:A 4.86213e-05
9 *7:15 *388:A 0.000111813
10 *7:15 *419:A 0.000181118
11 *7:15 *429:A 2.58453e-05
12 *7:15 *432:A 1.03868e-05
13 *7:15 *448:A 0.00032666
14 *7:15 *451:A 3.84022e-06
15 *7:15 *460:A 0.000355158
16 *7:15 *487:SET_B 4.69495e-06
17 *7:15 *498:D 4.51485e-05
18 *7:15 *8:18 0
19 *7:15 *9:7 0
20 *7:15 *48:19 7.09666e-06
21 *7:15 *61:8 8.91085e-05
22 *7:15 *63:8 0
23 *7:15 *71:21 0.000130496
24 *7:15 *77:10 0.000249264
25 *7:15 *97:33 1.9879e-05
26 *7:15 *97:41 0.000627752
27 *7:15 *223:10 8.96342e-05
28 *7:19 pad_gpio_out 7.86825e-06
29 *7:19 *48:19 2.57465e-06
30 *7:19 *89:9 0.000309216
31 *7:19 *123:18 0
32 *7:19 *192:18 0
33 *7:19 *220:32 0.000137046
34 *547:A *550:A 0
35 *549:A *550:A 0.000144525
36 *5:24 *7:15 1.44751e-05
37 *5:34 *550:A 8.94761e-05
38 *6:19 *7:15 0
39 *6:32 *550:A 0.00114891
40 *6:32 *7:19 0.0016381
*RES
1 gpio_defaults[3] *7:15 40.5604 
2 *7:15 *7:19 37.2683 
3 *7:19 *550:A 35.3608 
*END

*D_NET *8 0.0167408
*CONN
*P gpio_defaults[4] I
*I *551:A I *D sky130_fd_sc_hd__clkbuf_1
*CAP
1 gpio_defaults[4] 0.000888841
2 *551:A 0.000230507
3 *8:46 0.00104838
4 *8:38 0.00231154
5 *8:18 0.00238251
6 *551:A *402:B_N 0.000265463
7 *551:A *404:B 4.88645e-05
8 *551:A *42:18 7.92757e-06
9 *551:A *194:12 5.51091e-05
10 *551:A *216:21 9.39114e-06
11 *551:A *220:13 0.000183783
12 *8:18 *488:SET_B 0.000174827
13 *8:18 *497:RESET_B 0.000114885
14 *8:18 *526:A 0.000206696
15 *8:18 *9:7 0
16 *8:18 *10:7 0.000637227
17 *8:18 *38:28 0.000159908
18 *8:18 *61:11 0.000579032
19 *8:18 *62:15 0.000294093
20 *8:18 *63:11 0.000472818
21 *8:18 *94:11 9.32983e-05
22 *8:18 *94:19 6.08467e-05
23 *8:18 *113:17 0.000172034
24 *8:18 *115:9 4.56667e-05
25 *8:18 *205:13 1.3808e-05
26 *8:38 *504:D 2.41274e-06
27 *8:38 *520:A 1.85244e-05
28 *8:38 *11:18 5.11129e-05
29 *8:38 *12:11 0.000310582
30 *8:38 *13:18 0.000174407
31 *8:38 *56:7 1.19726e-05
32 *8:38 *94:11 1.0296e-05
33 *8:38 *118:19 0.000194487
34 *8:38 *123:18 3.40485e-05
35 *8:38 *163:44 2.20776e-05
36 *8:38 *169:84 0.000165649
37 *8:38 *172:15 7.00451e-05
38 *8:38 *172:29 0.000157567
39 *8:38 *190:24 1.84111e-05
40 *8:38 *212:10 0.000432428
41 *8:38 *216:41 0.000278022
42 *8:46 *240:DIODE 0.000252337
43 *8:46 *399:A 6.64392e-05
44 *8:46 *400:A 0.000209388
45 *8:46 *407:A 0.000107496
46 *8:46 *501:CLK 0.000245091
47 *8:46 *9:9 0.0010481
48 *8:46 *89:19 0.000146284
49 *8:46 *161:19 9.75148e-06
50 *8:46 *162:15 0.000212765
51 *8:46 *173:16 9.95542e-06
52 *533:A *8:46 0.000159903
53 *546:A *551:A 0.000132503
54 *2:15 *8:18 0.000333232
55 *2:29 *8:46 0.00078179
56 *3:30 *8:38 0.000616308
57 *7:15 *8:18 0
*RES
1 gpio_defaults[4] *8:18 46.369 
2 *8:18 *8:38 49.5452 
3 *8:38 *8:46 45.607 
4 *8:46 *551:A 21.9815 
*END

*D_NET *9 0.0105331
*CONN
*P gpio_defaults[5] I
*I *552:A I *D sky130_fd_sc_hd__clkbuf_1
*CAP
1 gpio_defaults[5] 0.000843298
2 *552:A 0.000237849
3 *9:9 0.00132473
4 *9:7 0.00193018
5 *552:A *42:18 6.46815e-05
6 *552:A *219:7 0.00057092
7 *9:7 *440:A 0
8 *9:7 *444:A 5.37077e-05
9 *9:7 *488:CLK_N 2.21029e-05
10 *9:7 *497:D 8.35123e-05
11 *9:7 *498:D 9.97479e-06
12 *9:7 *498:RESET_B 7.44787e-05
13 *9:7 *523:A 0.000108288
14 *9:7 *10:7 0
15 *9:7 *63:8 1.41284e-05
16 *9:7 *64:13 8.96342e-05
17 *9:7 *109:19 0
18 *9:7 *112:21 0.000155119
19 *9:7 *204:22 4.50907e-06
20 *9:9 *486:D 0.000224046
21 *9:9 *487:SET_B 2.39356e-05
22 *9:9 *500:D 0.000335291
23 *9:9 *501:CLK 1.52231e-05
24 *9:9 *523:A 8.18772e-06
25 *9:9 *38:41 0.000254121
26 *9:9 *172:15 7.97624e-06
27 *9:9 *204:22 4.45935e-05
28 *9:9 *219:11 0.00208004
29 *547:A *552:A 0.000498645
30 *549:A *552:A 8.859e-05
31 *2:29 *9:9 0.000248082
32 *5:34 *552:A 6.91907e-05
33 *7:15 *9:7 0
34 *8:18 *9:7 0
35 *8:46 *9:9 0.0010481
*RES
1 gpio_defaults[5] *9:7 20.7504 
2 *9:7 *9:9 46.4716 
3 *9:9 *552:A 25.7816 
*END

*D_NET *10 0.00832947
*CONN
*P gpio_defaults[6] I
*I *534:A I *D sky130_fd_sc_hd__clkbuf_1
*CAP
1 gpio_defaults[6] 0.00100241
2 *534:A 0.000851767
3 *10:7 0.00185417
4 *534:A *390:A 0.000319723
5 *534:A *486:RESET_B 5.8518e-05
6 *534:A *492:CLK_N 0.000114056
7 *534:A *499:RESET_B 0.000384523
8 *534:A *521:A 4.24619e-05
9 *534:A *537:A 0.000954327
10 *534:A *13:28 0.000511807
11 *534:A *89:12 9.06199e-05
12 *534:A *89:19 8.24716e-05
13 *534:A *172:29 3.5492e-05
14 *534:A *173:16 5.4767e-05
15 *534:A *205:13 1.31121e-05
16 *534:A *230:8 1.6537e-05
17 *10:7 *486:SET_B 7.30126e-05
18 *10:7 *488:SET_B 0.000258531
19 *10:7 *521:A 0.000273817
20 *10:7 *523:A 6.82302e-06
21 *10:7 *526:A 0.000278634
22 *10:7 *11:10 0
23 *10:7 *13:28 4.0605e-06
24 *10:7 *106:22 0.000104001
25 *10:7 *109:19 0.000219873
26 *2:15 *10:7 8.67213e-05
27 *8:18 *10:7 0.000637227
28 *9:7 *10:7 0
*RES
1 gpio_defaults[6] *10:7 29.8859 
2 *10:7 *534:A 45.2717 
*END

*D_NET *11 0.0100417
*CONN
*P gpio_defaults[7] I
*I *535:A I *D sky130_fd_sc_hd__clkbuf_1
*CAP
1 gpio_defaults[7] 0.000553001
2 *535:A 0.000252053
3 *11:18 0.00153272
4 *11:10 0.00183367
5 *535:A *399:A 0.000112469
6 *535:A *12:22 0.000111802
7 *535:A *36:20 0.000114584
8 *535:A *164:32 0.000251141
9 *535:A *170:19 6.23715e-06
10 *535:A *216:21 0
11 *11:10 *424:A 2.97017e-05
12 *11:10 *424:B 1.66518e-05
13 *11:10 *12:11 0
14 *11:10 *62:15 0.000255137
15 *11:10 *169:193 0.000328677
16 *11:18 *424:B 0.000336289
17 *11:18 *435:A 6.93171e-05
18 *11:18 *492:SET_B 9.25778e-05
19 *11:18 *503:D 0.000608861
20 *11:18 *512:TE 0.000100043
21 *11:18 *519:A 0.000689432
22 *11:18 *520:A 0.000140741
23 *11:18 *525:A 5.64017e-05
24 *11:18 *12:11 3.05771e-05
25 *11:18 *12:22 0.00112884
26 *11:18 *38:28 8.37573e-06
27 *11:18 *62:15 0.000313337
28 *11:18 *94:19 5.15932e-05
29 *11:18 *161:19 0.000296497
30 *11:18 *163:16 0.000207864
31 *11:18 *172:29 0.000182606
32 *11:18 *205:8 9.36438e-06
33 *11:18 *205:13 4.19854e-05
34 *2:15 *11:10 8.59507e-05
35 *4:26 *11:10 0.000142113
36 *8:38 *11:18 5.11129e-05
37 *10:7 *11:10 0
*RES
1 gpio_defaults[7] *11:10 21.1445 
2 *11:10 *11:18 48.8926 
3 *11:18 *535:A 24.6614 
*END

*D_NET *12 0.00972846
*CONN
*P gpio_defaults[8] I
*I *536:A I *D sky130_fd_sc_hd__clkbuf_1
*CAP
1 gpio_defaults[8] 0.00106263
2 *536:A 0
3 *12:22 0.00100497
4 *12:11 0.0020676
5 *12:11 *424:A 0.000349835
6 *12:11 *424:B 0.000127143
7 *12:11 *515:A 0.000161664
8 *12:11 *520:A 1.52231e-05
9 *12:11 *13:18 0.000262897
10 *12:11 *59:10 0.000381895
11 *12:11 *94:19 0.000280069
12 *12:11 *172:29 8.72115e-06
13 *12:22 *242:DIODE 1.65872e-05
14 *12:22 *395:B_N 7.1935e-06
15 *12:22 *396:A 5.49413e-05
16 *12:22 *492:SET_B 9.60029e-05
17 *12:22 *36:20 6.85061e-05
18 *12:22 *41:34 0.000206089
19 *12:22 *42:21 0.00015901
20 *12:22 *92:10 0.000958575
21 *12:22 *163:16 0.000289791
22 *12:22 *163:44 8.6297e-06
23 *12:22 *171:14 3.85446e-05
24 *12:22 *221:6 9.75064e-05
25 *535:A *12:22 0.000111802
26 *3:30 *12:11 0.000422171
27 *3:30 *12:22 4.60375e-07
28 *8:38 *12:11 0.000310582
29 *11:10 *12:11 0
30 *11:18 *12:11 3.05771e-05
31 *11:18 *12:22 0.00112884
*RES
1 gpio_defaults[8] *12:11 34.9423 
2 *12:11 *12:22 41.5588 
3 *12:22 *536:A 9.24915 
*END

*D_NET *13 0.0104387
*CONN
*P gpio_defaults[9] I
*I *537:A I *D sky130_fd_sc_hd__clkbuf_1
*CAP
1 gpio_defaults[9] 0.00106458
2 *537:A 0.000723642
3 *13:28 0.00144062
4 *13:18 0.00178156
5 *537:A *474:A 6.69925e-05
6 *537:A *532:A 0.000183879
7 *537:A *126:23 1.87825e-05
8 *537:A *161:19 0.000103492
9 *537:A *165:11 0.000116699
10 *537:A *173:16 4.44057e-05
11 *537:A *188:17 5.40403e-05
12 *537:A *205:8 0
13 *537:A *230:8 0.000227359
14 *13:18 *424:A 0.000341413
15 *13:18 *425:A 0.000187566
16 *13:18 *428:A 1.31872e-05
17 *13:18 *483:D 1.73051e-05
18 *13:18 *488:RESET_B 0.000265321
19 *13:18 *515:A 0.000161664
20 *13:18 *55:26 4.58765e-05
21 *13:18 *94:11 0
22 *13:18 *94:19 1.31872e-05
23 *13:18 *103:31 0.000396254
24 *13:18 *115:9 0
25 *13:28 *391:B 4.23858e-05
26 *13:28 *486:RESET_B 5.49916e-05
27 *13:28 *69:16 5.8518e-05
28 *13:28 *169:84 3.8173e-05
29 *13:28 *205:13 0.000659561
30 *534:A *537:A 0.000954327
31 *534:A *13:28 0.000511807
32 *547:A *537:A 6.3657e-05
33 *2:15 *13:18 0
34 *2:15 *13:28 0.000277186
35 *2:29 *537:A 0
36 *3:14 *13:18 2.41274e-06
37 *5:34 *537:A 6.64392e-05
38 *8:38 *13:18 0.000174407
39 *10:7 *13:28 4.0605e-06
40 *12:11 *13:18 0.000262897
*RES
1 gpio_defaults[9] *13:18 39.6688 
2 *13:18 *13:28 30.8696 
3 *13:28 *537:A 39.1434 
*END

*D_NET *14 0.00620362
*CONN
*P mgmt_gpio_in O
*I *481:Z O *D sky130_fd_sc_hd__ebufn_8
*CAP
1 mgmt_gpio_in 0.00152918
2 *481:Z 0.00152918
3 mgmt_gpio_in one 0.00208865
4 mgmt_gpio_in *405:A 3.87876e-05
5 mgmt_gpio_in *464:A 1.18384e-05
6 mgmt_gpio_in *477:A0 0.000158601
7 mgmt_gpio_in *15:8 0.000370206
8 mgmt_gpio_in *35:14 0
9 mgmt_gpio_in *39:18 0.000112544
10 mgmt_gpio_in *171:14 0.000364639
11 mgmt_gpio_in *191:8 0
*RES
1 *481:Z mgmt_gpio_in 44.7903 
*END

*D_NET *15 0.0068273
*CONN
*P mgmt_gpio_oeb I
*I *538:A I *D sky130_fd_sc_hd__clkbuf_1
*I *235:DIODE I *D sky130_fd_sc_hd__diode_2
*CAP
1 mgmt_gpio_oeb 0.000197473
2 *538:A 0.00022397
3 *235:DIODE 0.000192801
4 *15:37 2.98595e-05
5 *15:8 0.00210871
6 *15:7 0.00185955
7 *235:DIODE *238:DIODE 0.000405074
8 *235:DIODE *569:A 0.000211546
9 *538:A *236:DIODE 9.06405e-06
10 *538:A *238:DIODE 0
11 *538:A *404:B 6.3657e-05
12 *538:A *569:A 0
13 *538:A *16:22 3.70175e-05
14 *538:A *16:28 6.3657e-05
15 *538:A *17:23 0
16 *538:A *39:18 1.83904e-05
17 *538:A *42:18 2.49406e-05
18 *538:A *166:13 2.22394e-05
19 *15:7 zero 0.000180785
20 *15:7 *16:10 5.07861e-05
21 *15:8 one 0.000193159
22 *15:8 *238:DIODE 0.000211546
23 *15:8 *569:A 0.000345214
24 *15:8 *16:10 1.47085e-06
25 *15:8 *16:22 0
26 *15:8 *39:18 6.1858e-06
27 *15:37 *19:22 0
28 mgmt_gpio_in *15:8 0.000370206
*RES
1 mgmt_gpio_oeb *15:7 12.8152 
2 *15:7 *15:8 47.8647 
3 *15:8 *235:DIODE 24.6868 
4 *15:8 *538:A 23.6177 
5 mgmt_gpio_oeb *15:37 0.0631875 
*END

*D_NET *16 0.00716072
*CONN
*P mgmt_gpio_out I
*I *236:DIODE I *D sky130_fd_sc_hd__diode_2
*I *539:A I *D sky130_fd_sc_hd__clkbuf_1
*CAP
1 mgmt_gpio_out 0.000296415
2 *236:DIODE 0.00010763
3 *539:A 0
4 *16:43 2.93784e-05
5 *16:28 0.000229573
6 *16:22 0.00119637
7 *16:10 0.00134146
8 *236:DIODE *404:B 0.00056052
9 *236:DIODE *569:A 0.000414822
10 *236:DIODE *39:18 4.69414e-05
11 *16:10 pad_gpio_dm[2] 0.000119662
12 *16:10 zero 5.56367e-05
13 *16:10 *47:11 2.48809e-05
14 *16:22 *39:18 0.000452239
15 *16:22 *42:18 0.000147918
16 *16:22 *47:11 0.00184842
17 *16:28 *404:B 1.37531e-05
18 *16:28 *39:18 0.000113107
19 *538:A *236:DIODE 9.06405e-06
20 *538:A *16:22 3.70175e-05
21 *538:A *16:28 6.3657e-05
22 *15:7 *16:10 5.07861e-05
23 *15:8 *16:10 1.47085e-06
24 *15:8 *16:22 0
*RES
1 mgmt_gpio_out *16:10 15.3644 
2 *16:10 *16:22 48.4072 
3 *16:22 *16:28 11.5726 
4 *16:28 *539:A 9.24915 
5 *16:28 *236:DIODE 16.0973 
6 mgmt_gpio_out *16:43 0.0631875 
*END

*D_NET *17 0.0100915
*CONN
*P one O
*I *237:DIODE I *D sky130_fd_sc_hd__diode_2
*I *470:A I *D sky130_fd_sc_hd__and2_1
*I *238:DIODE I *D sky130_fd_sc_hd__diode_2
*I *511:HI O *D sky130_fd_sc_hd__conb_1
*CAP
1 one 0.000679566
2 *237:DIODE 0
3 *470:A 0.00010072
4 *238:DIODE 0.000846846
5 *511:HI 0
6 *17:23 0.000482622
7 *17:7 0.00130506
8 *17:4 0.000755874
9 one pad_gpio_ana_en 0
10 one *567:A 0.00121058
11 one *23:15 0.000186201
12 one *191:8 5.11321e-05
13 *238:DIODE *191:8 1.93511e-06
14 *470:A *470:B 0.000109421
15 *470:A *491:RESET_B 4.30308e-05
16 *470:A *19:11 0.000349354
17 *470:A *41:28 5.04829e-06
18 *17:7 *39:18 0.000110458
19 *17:23 *468:A 0.000500261
20 *17:23 *50:9 0.000450148
21 *17:23 *191:8 4.83562e-06
22 mgmt_gpio_in one 0.00208865
23 *235:DIODE *238:DIODE 0.000405074
24 *538:A *238:DIODE 0
25 *538:A *17:23 0
26 *15:8 one 0.000193159
27 *15:8 *238:DIODE 0.000211546
*RES
1 *511:HI *17:4 9.24915 
2 *17:4 *17:7 5.778 
3 *17:7 *238:DIODE 36.8435 
4 *17:7 *17:23 15.4675 
5 *17:23 *470:A 13.3002 
6 *17:23 *237:DIODE 9.24915 
7 *17:4 one 13.4445 
*END

*D_NET *18 0.00718841
*CONN
*P pad_gpio_ana_en O
*I *553:X O *D sky130_fd_sc_hd__buf_2
*CAP
1 pad_gpio_ana_en 0.00113505
2 *553:X 0.00113505
3 pad_gpio_ana_en pad_gpio_ana_sel 0
4 pad_gpio_ana_en pad_gpio_dm[1] 0.00306039
5 pad_gpio_ana_en *558:A 0.000105557
6 pad_gpio_ana_en *19:9 3.82228e-05
7 pad_gpio_ana_en *20:7 0.000188263
8 pad_gpio_ana_en *23:15 0.00031701
9 pad_gpio_ana_en *40:7 0.000319007
10 pad_gpio_ana_en *41:34 2.25112e-05
11 pad_gpio_ana_en *140:16 2.02035e-05
12 pad_gpio_ana_en *167:16 2.95658e-05
13 pad_gpio_ana_en *171:14 0.00081758
14 one pad_gpio_ana_en 0
*RES
1 *553:X pad_gpio_ana_en 25.3176 
*END

*D_NET *19 0.00703449
*CONN
*P pad_gpio_ana_pol O
*I *554:X O *D sky130_fd_sc_hd__buf_2
*CAP
1 pad_gpio_ana_pol 0.000627387
2 *554:X 0.000162302
3 *19:22 2.68684e-05
4 *19:11 0.0021216
5 *19:9 0.00168339
6 pad_gpio_ana_pol pad_gpio_dm[0] 9.82882e-05
7 pad_gpio_ana_pol pad_gpio_dm[2] 0.000102647
8 *19:9 *470:B 6.46815e-05
9 *19:9 *529:A 5.95609e-05
10 *19:9 *553:A 5.28741e-05
11 *19:11 pad_gpio_dm[1] 0.000146719
12 *19:11 *470:B 1.37939e-05
13 *19:11 *20:7 1.17945e-05
14 *19:11 *35:20 0.000909076
15 *19:11 *36:10 0
16 *19:11 *39:27 0.000135923
17 *19:11 *40:7 4.93265e-05
18 *19:11 *41:28 0.000273189
19 *19:11 *166:13 0.000107496
20 pad_gpio_ana_en *19:9 3.82228e-05
21 *470:A *19:11 0.000349354
22 *15:37 *19:22 0
*RES
1 *554:X *19:9 14.4576 
2 *19:9 *19:11 49.8058 
3 *19:11 pad_gpio_ana_pol 21.6499 
4 pad_gpio_ana_pol *19:22 0.0631875 
*END

*D_NET *20 0.00804769
*CONN
*P pad_gpio_ana_sel O
*I *555:X O *D sky130_fd_sc_hd__buf_2
*CAP
1 pad_gpio_ana_sel 0.000237936
2 *555:X 0.00100696
3 *20:7 0.0012449
4 pad_gpio_ana_sel pad_gpio_dm[1] 0.000250422
5 pad_gpio_ana_sel serial_clock_out 3.12312e-05
6 pad_gpio_ana_sel *35:20 0.000119268
7 *20:7 *512:A 6.0182e-05
8 *20:7 *39:27 0.0020596
9 *20:7 *40:7 0.00235214
10 *20:7 *140:16 0.000484995
11 pad_gpio_ana_en pad_gpio_ana_sel 0
12 pad_gpio_ana_en *20:7 0.000188263
13 *19:11 *20:7 1.17945e-05
*RES
1 *555:X *20:7 49.4126 
2 *20:7 pad_gpio_ana_sel 8.34556 
*END

*D_NET *21 0.00467613
*CONN
*P pad_gpio_dm[0] O
*I *556:X O *D sky130_fd_sc_hd__buf_2
*CAP
1 pad_gpio_dm[0] 0.000219931
2 *556:X 0
3 *21:7 0.00188092
4 *21:4 0.00166098
5 pad_gpio_dm[0] pad_gpio_dm[2] 0.000152655
6 *21:7 pad_gpio_holdover 0.000441062
7 *21:7 *40:13 0.000222291
8 pad_gpio_ana_pol pad_gpio_dm[0] 9.82882e-05
*RES
1 *556:X *21:4 9.24915 
2 *21:4 *21:7 48.4825 
3 *21:7 pad_gpio_dm[0] 11.2219 
*END

*D_NET *22 0.00748417
*CONN
*P pad_gpio_dm[1] O
*I *557:X O *D sky130_fd_sc_hd__buf_2
*CAP
1 pad_gpio_dm[1] 0.00161714
2 *557:X 0.00161714
3 pad_gpio_dm[1] pad_gpio_holdover 0
4 pad_gpio_dm[1] serial_clock_out 0
5 pad_gpio_dm[1] *404:B 2.52479e-05
6 pad_gpio_dm[1] *557:A 0.000215121