*SPEF "ieee 1481-1999"
*DESIGN "gpio_control_block"
*DATE "11:11:11 Fri 11 11, 1111"
*VENDOR "OpenRCX"
*PROGRAM "Parallel Extraction"
*VERSION "1.0"
*DESIGN_FLOW "NAME_SCOPE LOCAL" "PIN_CAP NONE"
*DIVIDER /
*DELIMITER :
*BUS_DELIMITER []
*T_UNIT 1 NS
*C_UNIT 1 PF
*R_UNIT 1 OHM
*L_UNIT 1 HENRY

*NAME_MAP
*1 gpio_defaults[0]
*2 gpio_defaults[10]
*3 gpio_defaults[11]
*4 gpio_defaults[12]
*5 gpio_defaults[1]
*6 gpio_defaults[2]
*7 gpio_defaults[3]
*8 gpio_defaults[4]
*9 gpio_defaults[5]
*10 gpio_defaults[6]
*11 gpio_defaults[7]
*12 gpio_defaults[8]
*13 gpio_defaults[9]
*14 mgmt_gpio_in
*15 mgmt_gpio_oeb
*16 mgmt_gpio_out
*17 one
*18 pad_gpio_ana_en
*19 pad_gpio_ana_pol
*20 pad_gpio_ana_sel
*21 pad_gpio_dm[0]
*22 pad_gpio_dm[1]
*23 pad_gpio_dm[2]
*24 pad_gpio_holdover
*25 pad_gpio_ib_mode_sel
*26 pad_gpio_in
*27 pad_gpio_inenb
*28 pad_gpio_out
*29 pad_gpio_outenb
*30 pad_gpio_slow_sel
*31 pad_gpio_vtrip_sel
*32 resetn
*33 resetn_out
*34 serial_clock
*35 serial_clock_out
*36 serial_data_in
*37 serial_data_out
*38 serial_load
*39 serial_load_out
*40 user_gpio_in
*41 user_gpio_oeb
*42 user_gpio_out
*47 zero
*48 _000_
*49 _001_
*50 _002_
*51 _003_
*52 _004_
*53 _005_
*54 _006_
*55 _007_
*56 _008_
*57 _009_
*58 _010_
*59 _011_
*60 _012_
*61 _013_
*62 _014_
*63 _015_
*64 _016_
*65 _017_
*66 _018_
*67 _019_
*68 _020_
*69 _021_
*70 _022_
*71 _023_
*72 _024_
*73 _025_
*74 _026_
*75 _027_
*76 _028_
*77 _029_
*78 _030_
*79 _031_
*80 _032_
*81 _033_
*82 _034_
*83 _035_
*84 _036_
*85 _037_
*86 _038_
*87 _039_
*88 _040_
*89 _041_
*90 _042_
*91 _043_
*92 _044_
*93 _045_
*94 _046_
*95 _047_
*96 _048_
*97 _049_
*98 _050_
*99 _051_
*100 _052_
*101 _053_
*102 _054_
*103 _055_
*104 _056_
*105 _057_
*106 _058_
*107 _059_
*108 _060_
*109 _061_
*110 _062_
*111 _063_
*112 _064_
*113 _065_
*114 _066_
*115 _067_
*116 _068_
*117 _069_
*118 _070_
*119 _071_
*120 _072_
*121 _073_
*122 _074_
*123 _076_
*124 _077_
*125 _078_
*126 _079_
*127 _080_
*128 _081_
*129 _082_
*130 _083_
*131 _084_
*132 _085_
*133 _086_
*134 _087_
*135 _088_
*136 _089_
*137 _090_
*138 _091_
*139 _092_
*140 _093_
*141 _094_
*142 _095_
*143 _096_
*144 _097_
*145 _098_
*146 _099_
*147 _100_
*148 _101_
*149 clknet_0_serial_clock
*150 clknet_1_0_0_serial_clock
*151 clknet_1_1_0_serial_clock
*152 gpio_logic1
*153 gpio_outenb
*154 mgmt_ena
*155 net1
*156 net10
*157 net11
*158 net12
*159 net13
*160 net14
*161 net15
*162 net16
*163 net17
*164 net18
*165 net19
*166 net2
*167 net20
*168 net21
*169 net22
*170 net23
*171 net24
*172 net25
*173 net26
*174 net27
*175 net28
*176 net29
*177 net3
*178 net30
*179 net31
*180 net32
*181 net33
*182 net34
*183 net35
*184 net36
*185 net37
*186 net38
*187 net39
*188 net4
*189 net40
*190 net41
*191 net42
*192 net43
*193 net44
*194 net45
*195 net46
*196 net47
*197 net48
*198 net49
*199 net5
*200 net50
*201 net51
*202 net52
*203 net53
*204 net54
*205 net55
*206 net56
*207 net57
*208 net58
*209 net59
*210 net6
*211 net60
*212 net61
*213 net62
*214 net63
*215 net64
*216 net65
*217 net66
*218 net7
*219 net8
*220 net9
*221 serial_data_pre
*222 shift_register\[0\]
*223 shift_register\[10\]
*224 shift_register\[11\]
*225 shift_register\[1\]
*226 shift_register\[2\]
*227 shift_register\[3\]
*228 shift_register\[4\]
*229 shift_register\[5\]
*230 shift_register\[6\]
*231 shift_register\[7\]
*232 shift_register\[8\]
*233 shift_register\[9\]
*234 ANTENNA_0
*235 ANTENNA_1
*236 ANTENNA_2
*237 ANTENNA_3
*238 ANTENNA_4
*239 ANTENNA_5
*240 ANTENNA_6
*241 FILLER_0_29
*242 FILLER_0_41
*243 FILLER_0_49
*244 FILLER_0_52
*245 FILLER_0_64
*246 FILLER_0_72
*247 FILLER_0_76
*248 FILLER_0_83
*249 FILLER_0_90
*250 FILLER_10_3
*251 FILLER_11_16
*252 FILLER_11_3
*253 FILLER_11_83
*254 FILLER_11_93
*255 FILLER_12_3
*256 FILLER_12_93
*257 FILLER_13_3
*258 FILLER_13_55
*259 FILLER_14_29
*260 FILLER_14_3
*261 FILLER_14_93
*262 FILLER_15_3
*263 FILLER_15_45
*264 FILLER_16_29
*265 FILLER_16_3
*266 FILLER_16_82
*267 FILLER_17_3
*268 FILLER_17_30
*269 FILLER_17_45
*270 FILLER_17_93
*271 FILLER_18_3
*272 FILLER_18_34
*273 FILLER_18_41
*274 FILLER_18_63
*275 FILLER_18_68
*276 FILLER_18_79
*277 FILLER_18_92
*278 FILLER_1_47
*279 FILLER_1_59
*280 FILLER_1_65
*281 FILLER_1_69
*282 FILLER_1_73
*283 FILLER_1_80
*284 FILLER_2_26
*285 FILLER_2_31
*286 FILLER_2_46
*287 FILLER_2_50
*288 FILLER_2_61
*289 FILLER_2_68
*290 FILLER_3_26
*291 FILLER_3_35
*292 FILLER_3_63
*293 FILLER_3_77
*294 FILLER_3_93
*295 FILLER_4_32
*296 FILLER_4_40
*297 FILLER_4_93
*298 FILLER_5_55
*299 FILLER_5_93
*300 FILLER_6_26
*301 FILLER_6_36
*302 FILLER_6_57
*303 FILLER_7_46
*304 FILLER_7_92
*305 FILLER_8_35
*306 FILLER_8_63
*307 FILLER_8_93
*308 FILLER_9_3
*309 PHY_0
*310 PHY_1
*311 PHY_10
*312 PHY_11
*313 PHY_12
*314 PHY_13
*315 PHY_14
*316 PHY_15
*317 PHY_16
*318 PHY_17
*319 PHY_18
*320 PHY_19
*321 PHY_2
*322 PHY_20
*323 PHY_21
*324 PHY_22
*325 PHY_23
*326 PHY_24
*327 PHY_25
*328 PHY_26
*329 PHY_27
*330 PHY_28
*331 PHY_29
*332 PHY_3
*333 PHY_30
*334 PHY_31
*335 PHY_32
*336 PHY_33
*337 PHY_34
*338 PHY_35
*339 PHY_36
*340 PHY_37
*341 PHY_4
*342 PHY_5
*343 PHY_6
*344 PHY_7
*345 PHY_8
*346 PHY_9
*347 TAP_38
*348 TAP_39
*349 TAP_40
*350 TAP_41
*351 TAP_42
*352 TAP_43
*353 TAP_44
*354 TAP_45
*355 TAP_46
*356 TAP_47
*357 TAP_48
*358 TAP_49
*359 TAP_50
*360 TAP_51
*361 TAP_52
*362 TAP_53
*363 TAP_54
*364 TAP_55
*365 TAP_56
*366 TAP_57
*367 TAP_58
*368 TAP_59
*369 TAP_60
*370 TAP_61
*371 TAP_62
*372 TAP_63
*373 TAP_64
*374 TAP_65
*375 _102_
*376 _103_
*377 _104_
*378 _105_
*379 _106__1
*380 _106__2
*381 _106__3
*382 _106__4
*383 _106__5
*384 _107_
*385 _108_
*386 _109_
*387 _110_
*388 _111_
*389 _112_
*390 _113_
*391 _114_
*392 _115_
*393 _116_
*394 _117_
*395 _118_
*396 _119_
*397 _120_
*398 _121_
*399 _122_
*400 _123_
*401 _124_
*402 _125_
*403 _126_
*404 _127_
*405 _128_
*406 _129_
*407 _130_
*408 _131_
*409 _132_
*410 _133_
*411 _134_
*412 _135_
*413 _136_
*414 _137_
*415 _138_
*416 _139_
*417 _140_
*418 _141_
*419 _142_
*420 _143_
*421 _144_
*422 _145_
*423 _146_
*424 _147_
*425 _148_
*426 _149_
*427 _150_
*428 _151_
*429 _152_
*430 _153_
*431 _154_
*432 _155_
*433 _156_
*434 _157_
*435 _158_
*436 _159_
*437 _160_
*438 _161_
*439 _162_
*440 _163_
*441 _164_
*442 _165_
*443 _166_
*444 _167_
*445 _168_
*446 _169_
*447 _170_
*448 _171_
*449 _172_
*450 _173_
*451 _174_
*452 _175_
*453 _176_
*454 _177_
*455 _178_
*456 _179_
*457 _180_
*458 _181_
*459 _182_
*460 _183_
*461 _184_
*462 _185_
*463 _186_
*464 _187_
*465 _188_
*466 _189_
*467 _190_
*468 _191_
*469 _192_
*470 _193_
*471 _194_
*472 _195_
*473 _196_
*474 _197_
*475 _198_
*476 _199_
*477 _200_
*478 _201_
*479 _202_
*480 _203_
*481 _204_
*482 _205_
*483 _206_
*484 _207_
*485 _208_
*486 _209_
*487 _210_
*488 _211_
*489 _212_
*490 _213_
*491 _214_
*492 _215_
*493 _216_
*494 _217_
*495 _218_
*496 _219_
*497 _220_
*498 _221_
*499 _222_
*500 _223_
*501 clkbuf_0_serial_clock
*502 clkbuf_1_0_0_serial_clock
*503 clkbuf_1_1_0_serial_clock
*504 const_source
*505 gpio_in_buf
*506 gpio_logic_high
*507 hold1
*508 hold10
*509 hold11
*510 hold12
*511 hold13
*512 hold14
*513 hold15
*514 hold16
*515 hold17
*516 hold18
*517 hold19
*518 hold2
*519 hold20
*520 hold21
*521 hold22
*522 hold3
*523 hold4
*524 hold5
*525 hold6
*526 hold7
*527 hold8
*528 hold9
*529 input1
*530 input10
*531 input11
*532 input12
*533 input13
*534 input14
*535 input15
*536 input16
*537 input17
*538 input18
*539 input19
*540 input2
*541 input20
*542 input3
*543 input4
*544 input5
*545 input6
*546 input7
*547 input8
*548 input9
*549 output22
*550 output23
*551 output24
*552 output25
*553 output26
*554 output27
*555 output28
*556 output29
*557 output30
*558 output31
*559 output32
*560 output33
*561 output34
*562 output35
*563 output36
*564 output37
*565 output38
*566 output39

*PORTS
gpio_defaults[0] I
gpio_defaults[10] I
gpio_defaults[11] I
gpio_defaults[12] I
gpio_defaults[1] I
gpio_defaults[2] I
gpio_defaults[3] I
gpio_defaults[4] I
gpio_defaults[5] I
gpio_defaults[6] I
gpio_defaults[7] I
gpio_defaults[8] I
gpio_defaults[9] I
mgmt_gpio_in O
mgmt_gpio_oeb I
mgmt_gpio_out I
one O
pad_gpio_ana_en O
pad_gpio_ana_pol O
pad_gpio_ana_sel O
pad_gpio_dm[0] O
pad_gpio_dm[1] O
pad_gpio_dm[2] O
pad_gpio_holdover O
pad_gpio_ib_mode_sel O
pad_gpio_in I
pad_gpio_inenb O
pad_gpio_out O
pad_gpio_outenb O
pad_gpio_slow_sel O
pad_gpio_vtrip_sel O
resetn I
resetn_out O
serial_clock I
serial_clock_out O
serial_data_in I
serial_data_out O
serial_load I
serial_load_out O
user_gpio_in O
user_gpio_oeb I
user_gpio_out I
zero O

*D_NET *1 0.00508845
*CONN
*P gpio_defaults[0] I
*I *529:A I *D sky130_fd_sc_hd__clkbuf_1
*CAP
1 gpio_defaults[0] 0.00124059
2 *529:A 0.00034267
3 *1:10 0.00158326
4 *529:A *421:A 0.000114271
5 *529:A *426:A 0.000160001
6 *529:A *94:24 0.000326294
7 *529:A *150:8 0.000137643
8 *529:A *150:13 0.000217153
9 *529:A *150:46 0.000151769
10 *529:A *155:17 3.51962e-05
11 *529:A *183:21 6.7437e-05
12 *1:10 *382:A 0.000107496
13 *1:10 *5:14 0
14 *1:10 *119:22 0.000440102
15 *1:10 *185:16 0.000164568
*RES
1 gpio_defaults[0] *1:10 41.166 
2 *1:10 *529:A 27.6557 
*END

*D_NET *2 0.00856822
*CONN
*P gpio_defaults[10] I
*I *540:A I *D sky130_fd_sc_hd__clkbuf_1
*CAP
1 gpio_defaults[10] 0.00118463
2 *540:A 0.00110935
3 *2:15 0.00229398
4 *540:A *393:B 0.000164368
5 *540:A *394:A 0.000304706
6 *540:A *485:RESET_B 0.000122088
7 *540:A *495:D 0
8 *540:A *513:A 0
9 *540:A *527:A 0
10 *540:A *542:A 2.99287e-05
11 *540:A *547:A 0
12 *540:A *555:A 0.000224169
13 *540:A *24:26 2.19079e-05
14 *540:A *39:17 9.05154e-05
15 *540:A *42:33 6.30378e-05
16 *540:A *89:39 6.64392e-05
17 *540:A *155:17 3.95701e-05
18 *540:A *163:289 0.000135613
19 *540:A *169:20 3.58315e-06
20 *540:A *177:17 4.27121e-06
21 *540:A *189:10 4.60375e-07
22 *540:A *202:20 0.000212269
23 *2:15 user_gpio_in 9.94361e-05
24 *2:15 *437:A 0.000254976
25 *2:15 *488:D 1.29948e-05
26 *2:15 *3:11 0
27 *2:15 *3:13 0
28 *2:15 *13:17 0
29 *2:15 *37:8 2.39052e-05
30 *2:15 *61:27 2.80293e-05
31 *2:15 *69:14 0.000680124
32 *2:15 *155:17 0.000560373
33 *2:15 *155:24 0
34 *2:15 *163:159 0.00033121
35 *2:15 *185:16 0.000147367
36 *2:15 *189:10 0.000358911
*RES
1 gpio_defaults[10] *2:15 37.2994 
2 *2:15 *540:A 44.3951 
*END

*D_NET *3 0.010184
*CONN
*P gpio_defaults[11] I
*I *542:A I *D sky130_fd_sc_hd__clkbuf_1
*CAP
1 gpio_defaults[11] 0.000140542
2 *542:A 0.000603415
3 *3:13 0.00236587
4 *3:11 0.00190299
5 *542:A *402:A 0.000311378
6 *542:A *407:A 0.000114594
7 *542:A *408:A 6.64392e-05
8 *542:A *39:17 2.2535e-05
9 *542:A *89:39 4.7324e-05
10 *542:A *166:8 0.000114594
11 *542:A *188:16 1.06107e-05
12 *3:13 *375:A 0.000108707
13 *3:13 *377:B 3.45633e-05
14 *3:13 *434:B_N 0.000100762
15 *3:13 *475:CLK_N 0.000279057
16 *3:13 *482:CLK_N 1.10465e-05
17 *3:13 *483:D 0.000274717
18 *3:13 *486:RESET_B 0.000104843
19 *3:13 *4:7 0.000448363
20 *3:13 *4:17 0.00175387
21 *3:13 *37:8 0
22 *3:13 *155:24 2.71481e-05
23 *3:13 *159:24 0.000680613
24 *3:13 *163:88 4.21215e-05
25 *3:13 *163:187 8.33721e-06
26 *3:13 *188:16 6.67241e-05
27 *3:13 *188:25 0.000446339
28 *3:13 *222:10 6.65668e-05
29 *540:A *542:A 2.99287e-05
30 *2:15 *3:11 0
31 *2:15 *3:13 0
*RES
1 gpio_defaults[11] *3:11 4.36015 
2 *3:11 *3:13 59.7597 
3 *3:13 *542:A 34.9445 
*END

*D_NET *4 0.0104415
*CONN
*P gpio_defaults[12] I
*I *543:A I *D sky130_fd_sc_hd__clkbuf_1
*CAP
1 gpio_defaults[12] 0.000863445
2 *543:A 2.22787e-05
3 *4:17 0.00145405
4 *4:7 0.00229522
5 *543:A *89:39 6.27718e-05
6 *543:A *188:16 5.04829e-06
7 *4:7 *434:B_N 9.75033e-05
8 *4:7 *475:D 0.000292376
9 *4:7 *114:8 5.55154e-05
10 *4:7 *178:48 0.000264309
11 *4:17 pad_gpio_ib_mode_sel 1.99596e-06
12 *4:17 *406:A 1.82001e-05
13 *4:17 *456:A 0.000459853
14 *4:17 *482:CLK_N 8.73244e-06
15 *4:17 *528:A 0.000271838
16 *4:17 *547:A 0.000101888
17 *4:17 *9:46 2.0381e-05
18 *4:17 *42:33 0.00106828
19 *4:17 *89:39 3.33173e-06
20 *4:17 *119:16 4.89764e-05
21 *4:17 *133:14 0.000518921
22 *4:17 *159:16 0.000116599
23 *4:17 *167:19 9.01011e-05
24 *4:17 *178:48 8.74081e-05
25 *4:17 *188:46 1.02611e-05
26 *3:13 *4:7 0.000448363
27 *3:13 *4:17 0.00175387
*RES
1 gpio_defaults[12] *4:7 24.9029 
2 *4:7 *4:17 49.4173 
3 *4:17 *543:A 9.97254 
*END

*D_NET *5 0.0103025
*CONN
*P gpio_defaults[1] I
*I *544:A I *D sky130_fd_sc_hd__clkbuf_1
*CAP
1 gpio_defaults[1] 0.000771024
2 *544:A 0.000550972
3 *5:20 0.0013275
4 *5:14 0.00154755
5 *544:A *545:A 0.00135919
6 *544:A *546:A 6.85944e-06
7 *544:A *7:28 0.00053778
8 *544:A *150:19 4.7903e-06
9 *544:A *199:14 0.00021141
10 *544:A *219:12 6.78626e-06
11 *544:A *220:14 1.68336e-05
12 *5:14 *464:A 7.78924e-05
13 *5:14 *476:SET_B 1.83434e-05
14 *5:14 *489:CLK 2.44579e-05
15 *5:14 *6:24 4.94253e-05
16 *5:14 *54:16 1.5714e-05
17 *5:14 *55:11 7.26606e-05
18 *5:14 *57:11 7.60183e-05
19 *5:14 *92:8 0.000369082
20 *5:14 *114:14 0.000250652
21 *5:14 *120:10 0.00042424
22 *5:14 *185:16 6.66437e-05
23 *5:20 *421:A 0.000368104
24 *5:20 *6:30 8.15484e-05
25 *5:20 *119:22 0.00124504
26 *5:20 *150:19 0.000162739
27 *5:20 *183:21 0.000659268
28 *1:10 *5:14 0
*RES
1 gpio_defaults[1] *5:14 33.762 
2 *5:14 *5:20 40.3612 
3 *5:20 *544:A 41.255 
*END

*D_NET *6 0.010777
*CONN
*P gpio_defaults[2] I
*I *545:A I *D sky130_fd_sc_hd__clkbuf_1
*CAP
1 gpio_defaults[2] 0.000875608
2 *545:A 0.000461975
3 *6:30 0.00123095
4 *6:24 0.00164459
5 *545:A *546:A 0.000730428
6 *545:A *7:28 1.59525e-05
7 *545:A *219:12 9.90873e-05
8 *545:A *220:14 0.000799096
9 *6:24 *415:A 5.62832e-05
10 *6:24 *429:A 6.01079e-05
11 *6:24 *433:A 2.33013e-05
12 *6:24 *450:A 0.000488808
13 *6:24 *476:SET_B 0.000102025
14 *6:24 *479:SET_B 0.000203756
15 *6:24 *489:CLK 0.00036301
16 *6:24 *490:CLK 9.37392e-06
17 *6:24 *516:A 2.53698e-05
18 *6:24 *7:19 0.000311521
19 *6:24 *8:39 4.55433e-05
20 *6:24 *38:46 0.000143295
21 *6:24 *94:24 4.24629e-05
22 *6:24 *114:14 1.59906e-05
23 *6:24 *150:56 0.000112367
24 *6:30 *383:A 1.94224e-05
25 *6:30 *395:A 0.00018492
26 *6:30 *396:A 0.000137176
27 *6:30 *423:A 3.95077e-05
28 *6:30 *480:SET_B 8.05029e-05
29 *6:30 *492:D 9.43419e-05
30 *6:30 *515:A 0.000380786
31 *6:30 *523:A 0.000108648
32 *6:30 *7:19 1.85244e-05
33 *6:30 *7:28 0.000106191
34 *6:30 *119:22 0
35 *6:30 *150:19 0.000207901
36 *6:30 *155:17 4.80075e-05
37 *544:A *545:A 0.00135919
38 *5:14 *6:24 4.94253e-05
39 *5:20 *6:30 8.15484e-05
*RES
1 gpio_defaults[2] *6:24 47.584 
2 *6:24 *6:30 33.7087 
3 *6:30 *545:A 42.3642 
*END

*D_NET *7 0.0098809
*CONN
*P gpio_defaults[3] I
*I *546:A I *D sky130_fd_sc_hd__clkbuf_1
*CAP
1 gpio_defaults[3] 0.000905104
2 *546:A 0.000357691
3 *7:28 0.00169089
4 *7:19 0.0022383
5 *546:A *165:14 0.000243985
6 *546:A *220:14 1.36606e-05
7 *7:19 *429:A 0.00010383
8 *7:19 *444:A 0.000312016
9 *7:19 *450:A 5.31921e-05
10 *7:19 *515:A 8.70662e-06
11 *7:19 *516:A 0.000435724
12 *7:19 *8:18 0
13 *7:19 *8:39 7.47184e-06
14 *7:19 *38:46 2.79162e-05
15 *7:19 *60:18 0.000116946
16 *7:19 *104:14 0.000144758
17 *7:28 *480:SET_B 0.000340595
18 *7:28 *523:A 0.000269785
19 *7:28 *8:39 0.000548905
20 *7:28 *150:19 0.000334167
21 *544:A *546:A 6.85944e-06
22 *544:A *7:28 0.00053778
23 *545:A *546:A 0.000730428
24 *545:A *7:28 1.59525e-05
25 *6:24 *7:19 0.000311521
26 *6:30 *7:19 1.85244e-05
27 *6:30 *7:28 0.000106191
*RES
1 gpio_defaults[3] *7:19 30.8142 
2 *7:19 *7:28 49.4247 
3 *7:28 *546:A 21.9206 
*END

*D_NET *8 0.0145649
*CONN
*P gpio_defaults[4] I
*I *547:A I *D sky130_fd_sc_hd__clkbuf_1
*CAP
1 gpio_defaults[4] 0.00156318
2 *547:A 0.000402054
3 *8:39 0.00216015
4 *8:18 0.00332127
5 *547:A *486:D 1.80504e-05
6 *547:A *486:SET_B 0.000103863
7 *547:A *548:A 0.000199071
8 *547:A *9:46 1.68214e-05
9 *547:A *177:17 0
10 *547:A *188:16 0.000112522
11 *547:A *219:11 2.95784e-06
12 *547:A *220:14 2.58616e-05
13 *8:18 *419:A 4.24974e-05
14 *8:18 *429:A 4.54793e-05
15 *8:18 *9:25 0
16 *8:18 *10:7 0.000811455
17 *8:18 *11:10 0
18 *8:18 *12:13 2.9569e-05
19 *8:18 *60:18 0
20 *8:18 *60:21 8.66716e-06
21 *8:18 *100:16 0.000142867
22 *8:18 *109:16 0.000193868
23 *8:18 *114:14 0.000576786
24 *8:18 *183:21 5.26844e-05
25 *8:18 *210:16 0.0004416
26 *8:39 *386:A 0.000287345
27 *8:39 *423:A 5.46882e-05
28 *8:39 *486:D 0.000278727
29 *8:39 *486:SET_B 8.17847e-06
30 *8:39 *490:D 0
31 *8:39 *491:D 3.80582e-05
32 *8:39 *493:D 0
33 *8:39 *495:D 0.000235429
34 *8:39 *499:D 0.000190199
35 *8:39 *513:A 2.4703e-05
36 *8:39 *9:46 0.00019234
37 *8:39 *94:24 0.000115484
38 *8:39 *150:19 1.86487e-05
39 *8:39 *155:17 0.000496675
40 *8:39 *163:304 0.000146035
41 *8:39 *163:358 0.000286893
42 *8:39 *169:20 1.11816e-05
43 *8:39 *175:17 0.000476838
44 *8:39 *177:38 0.00070009
45 *8:39 *227:13 2.83016e-05
46 *540:A *547:A 0
47 *4:17 *547:A 0.000101888
48 *6:24 *8:39 4.55433e-05
49 *7:19 *8:18 0
50 *7:19 *8:39 7.47184e-06
51 *7:28 *8:39 0.000548905
*RES
1 gpio_defaults[4] *8:18 42.8384 
2 *8:18 *8:39 44.7464 
3 *8:39 *547:A 23.9867 
*END

*D_NET *9 0.0117698
*CONN
*P gpio_defaults[5] I
*I *548:A I *D sky130_fd_sc_hd__clkbuf_1
*CAP
1 gpio_defaults[5] 0.00172432
2 *548:A 0.000198442
3 *9:46 0.00111471
4 *9:25 0.00264059
5 *548:A *39:17 0
6 *548:A *188:16 6.46815e-05
7 *9:25 *417:A 2.71491e-05
8 *9:25 *419:A 3.39313e-06
9 *9:25 *445:A 0
10 *9:25 *481:RESET_B 0.000216536
11 *9:25 *489:RESET_B 9.61017e-05
12 *9:25 *490:RESET_B 3.63806e-05
13 *9:25 *491:D 0.000103912
14 *9:25 *510:A 0.000216324
15 *9:25 *518:A 1.9939e-05
16 *9:25 *10:7 0
17 *9:25 *11:10 0.000166665
18 *9:25 *28:16 2.67387e-05
19 *9:25 *56:11 6.93171e-05
20 *9:25 *66:11 2.60879e-06
21 *9:25 *94:45 0.000418304
22 *9:25 *100:16 8.28334e-05
23 *9:25 *109:16 7.67117e-05
24 *9:25 *115:19 0
25 *9:25 *177:38 0.000421006
26 *9:25 *183:21 0.00051669
27 *9:25 *210:16 7.61976e-06
28 *9:25 *218:13 0.000552751
29 *9:46 *389:A 6.27718e-05
30 *9:46 *390:A 5.04829e-06
31 *9:46 *392:A 8.84425e-05
32 *9:46 *485:SET_B 2.16355e-05
33 *9:46 *486:D 0.000103883
34 *9:46 *486:SET_B 2.05405e-05
35 *9:46 *494:D 9.91181e-05
36 *9:46 *499:D 6.73435e-05
37 *9:46 *505:TE 4.43727e-05
38 *9:46 *520:A 7.72394e-06
39 *9:46 *42:33 8.13026e-05
40 *9:46 *89:30 0.000830399
41 *9:46 *89:32 0.000158446
42 *9:46 *89:39 0.000363581
43 *9:46 *155:17 0.000194192
44 *9:46 *158:21 1.65872e-05
45 *9:46 *175:17 3.57473e-05
46 *9:46 *177:17 0.000107496
47 *9:46 *202:20 3.02737e-05
48 *9:46 *218:8 0.000198588
49 *547:A *548:A 0.000199071
50 *547:A *9:46 1.68214e-05
51 *4:17 *9:46 2.0381e-05
52 *8:18 *9:25 0
53 *8:39 *9:46 0.00019234
*RES
1 gpio_defaults[5] *9:25 49.7402 
2 *9:25 *9:46 49.8152 
3 *9:46 *548:A 22.8808 
*END

*D_NET *10 0.00688538
*CONN
*P gpio_defaults[6] I
*I *530:A I *D sky130_fd_sc_hd__clkbuf_1
*CAP
1 gpio_defaults[6] 0.000973704
2 *530:A 0.000679944
3 *10:7 0.00165365
4 *530:A *390:A 0.000166836
5 *530:A *422:B_N 1.05798e-05
6 *530:A *480:CLK_N 0.000266401
7 *530:A *485:CLK_N 0.000116355
8 *530:A *511:A 0.000296299
9 *530:A *11:18 2.35188e-05
10 *530:A *83:15 0.000132548
11 *530:A *157:19 4.98339e-05
12 *530:A *163:315 0.00032451
13 *530:A *193:13 2.42877e-05
14 *530:A *199:14 0.00029064
15 *530:A *199:20 0.000317665
16 *10:7 *418:B 4.0998e-05
17 *10:7 *11:10 0
18 *10:7 *11:18 0.000261969
19 *10:7 *28:16 0.000304191
20 *10:7 *94:45 5.1674e-06
21 *10:7 *199:20 0.000125907
22 *10:7 *210:16 8.92564e-06
23 *8:18 *10:7 0.000811455
24 *9:25 *10:7 0
*RES
1 gpio_defaults[6] *10:7 26.2952 
2 *10:7 *530:A 39.0429 
*END

*D_NET *11 0.00795625
*CONN
*P gpio_defaults[7] I
*I *531:A I *D sky130_fd_sc_hd__clkbuf_1
*CAP
1 gpio_defaults[7] 0.000802506
2 *531:A 0
3 *11:18 0.00100465
4 *11:10 0.00180716
5 *11:10 *418:A 0.000158616
6 *11:10 *419:A 0.000164638
7 *11:10 *437:A 8.42821e-05
8 *11:10 *476:D 0.000350854
9 *11:10 *481:RESET_B 5.51483e-06
10 *11:10 *510:A 2.16355e-05
11 *11:10 *12:13 0
12 *11:10 *28:16 0.000107496
13 *11:10 *63:10 0.000120255
14 *11:10 *66:11 0
15 *11:18 *480:CLK_N 1.31918e-05
16 *11:18 *493:RESET_B 3.38973e-05
17 *11:18 *511:A 1.19971e-05
18 *11:18 *532:A 0.000114584
19 *11:18 *157:19 0.000577899
20 *11:18 *158:21 6.64392e-05
21 *11:18 *163:315 4.62046e-05
22 *11:18 *163:352 9.28716e-05
23 *11:18 *193:13 0.000442911
24 *11:18 *210:8 0.0012638
25 *11:18 *210:16 0.000212691
26 *530:A *11:18 2.35188e-05
27 *8:18 *11:10 0
28 *9:25 *11:10 0.000166665
29 *10:7 *11:10 0
30 *10:7 *11:18 0.000261969
*RES
1 gpio_defaults[7] *11:10 31.1972 
2 *11:10 *11:18 40.9035 
3 *11:18 *531:A 9.24915 
*END

*D_NET *12 0.00982024
*CONN
*P gpio_defaults[8] I
*I *532:A I *D sky130_fd_sc_hd__clkbuf_1
*CAP
1 gpio_defaults[8] 0.00158286
2 *532:A 0.00042663
3 *12:13 0.00200949
4 *532:A *390:A 3.95516e-05
5 *532:A *119:16 0.000353785
6 *532:A *157:19 0.00016419
7 *532:A *158:21 2.29454e-05
8 *532:A *177:18 0.000154785
9 *532:A *177:38 1.29445e-05
10 *532:A *199:14 0.000748896
11 *12:13 *413:A 9.5815e-05
12 *12:13 *425:A 0.000147039
13 *12:13 *429:A 0.000860268
14 *12:13 *431:A 0.000108344
15 *12:13 *437:A 1.21985e-05
16 *12:13 *479:SET_B 3.1747e-05
17 *12:13 *491:RESET_B 0.000363404
18 *12:13 *562:A 4.43478e-05
19 *12:13 *13:17 0
20 *12:13 *63:10 6.96333e-05
21 *12:13 *64:9 0.000103541
22 *12:13 *66:11 0.000829559
23 *12:13 *100:16 0.000727599
24 *12:13 *163:358 0.000173637
25 *12:13 *175:17 0.000508277
26 *12:13 *177:38 4.74387e-05
27 *12:13 *183:21 0
28 *12:13 *199:14 3.71582e-05
29 *8:18 *12:13 2.9569e-05
30 *11:10 *12:13 0
31 *11:18 *532:A 0.000114584
*RES
1 gpio_defaults[8] *12:13 48.8648 
2 *12:13 *532:A 31.491 
*END

*D_NET *13 0.00896206
*CONN
*P gpio_defaults[9] I
*I *533:A I *D sky130_fd_sc_hd__clkbuf_1
*CAP
1 gpio_defaults[9] 0.00140688
2 *533:A 0.000692333
3 *13:17 0.00209921
4 *533:A *480:D 0.000439803
5 *533:A *518:A 0.000107496
6 *533:A *36:29 1.41181e-05
7 *533:A *41:29 4.63873e-05
8 *533:A *83:15 0.000126846
9 *533:A *164:19 0.000599488
10 *533:A *177:17 6.08467e-05
11 *533:A *210:8 0.00102384
12 *533:A *218:8 7.0705e-05
13 *533:A *218:13 0.000196752
14 *13:17 user_gpio_in 0
15 *13:17 *430:A 5.20881e-05
16 *13:17 *430:B 6.08502e-05
17 *13:17 *431:A 0.00052355
18 *13:17 *435:A 0.000237441
19 *13:17 *495:D 0.000678976
20 *13:17 *64:9 1.94585e-05
21 *13:17 *69:14 0
22 *13:17 *115:19 1.5714e-05
23 *13:17 *155:17 0
24 *13:17 *163:52 0.000141654
25 *13:17 *175:17 0.000347627
26 *2:15 *13:17 0
27 *12:13 *13:17 0
*RES
1 gpio_defaults[9] *13:17 48.9353 
2 *13:17 *533:A 44.8146 
*END

*D_NET *14 0.00647005
*CONN
*P mgmt_gpio_in O
*I *474:Z O *D sky130_fd_sc_hd__ebufn_1
*CAP
1 mgmt_gpio_in 0.00121472
2 *474:Z 0.00121472
3 mgmt_gpio_in one 0.000777219
4 mgmt_gpio_in zero 0.000866748
5 mgmt_gpio_in *473:A1 0.000370419
6 mgmt_gpio_in *15:14 0.000269018
7 mgmt_gpio_in *50:25 3.87022e-06
8 mgmt_gpio_in *136:11 0.00123501
9 mgmt_gpio_in *153:51 1.5714e-05
10 mgmt_gpio_in *169:20 0.00044069
11 mgmt_gpio_in *186:8 6.19088e-05
*RES
1 *474:Z mgmt_gpio_in 46.3759 
*END

*D_NET *15 0.00519012
*CONN
*P mgmt_gpio_oeb I
*I *534:A I *D sky130_fd_sc_hd__clkbuf_1
*CAP
1 mgmt_gpio_oeb 0.000181921
2 *534:A 0
3 *15:21 2.37733e-05
4 *15:14 0.00140764
5 *15:10 0.00156579
6 *15:10 *26:19 3.96379e-06
7 *15:10 *26:21 6.19889e-06
8 *15:14 one 0.000362329
9 *15:14 *17:5 6.64392e-05
10 *15:14 *17:21 9.17814e-05
11 *15:14 *26:21 0.00114248
12 *15:14 *136:11 6.08467e-05
13 *15:21 *16:31 7.93958e-06
14 mgmt_gpio_in *15:14 0.000269018
*RES
1 mgmt_gpio_oeb *15:10 11.3485 
2 *15:10 *15:14 49.2753 
3 *15:14 *534:A 9.24915 
4 mgmt_gpio_oeb *15:21 0.0631875 
*END

*D_NET *16 0.00701656
*CONN
*P mgmt_gpio_out I
*I *535:A I *D sky130_fd_sc_hd__clkbuf_1
*I *239:DIODE I *D sky130_fd_sc_hd__diode_2
*CAP
1 mgmt_gpio_out 0.000129519
2 *535:A 2.12792e-05
3 *239:DIODE 4.98002e-05
4 *16:31 2.64815e-05
5 *16:16 0.000210662
6 *16:14 0.00107103
7 *16:10 0.00103449
8 *239:DIODE *565:A 4.01946e-05
9 *239:DIODE *161:11 4.89392e-05
10 *16:10 pad_gpio_ana_en 0.00013212
11 *16:10 *26:19 1.99543e-06
12 *16:14 one 0.000166919
13 *16:14 pad_gpio_ana_en 0.00107932
14 *16:14 *412:A 1.4106e-05
15 *16:14 *18:7 0.00171804
16 *16:14 *26:19 3.35646e-06
17 *16:14 *26:21 0.000735618
18 *16:16 *412:A 0.000178363
19 *16:16 *459:A 6.36477e-05
20 *16:16 *482:RESET_B 0.000110306
21 *16:16 *565:A 1.4106e-05
22 *16:16 *48:12 6.08467e-05
23 *16:16 *50:25 1.88152e-05
24 *16:16 *161:11 7.86594e-05
25 *15:21 *16:31 7.93958e-06
*RES
1 mgmt_gpio_out *16:10 10.9332 
2 *16:10 *16:14 46.3576 
3 *16:14 *16:16 5.71483 
4 *16:16 *239:DIODE 11.0817 
5 *16:16 *535:A 9.82786 
6 mgmt_gpio_out *16:31 0.0631875 
*END

*D_NET *17 0.00560202
*CONN
*P one O
*I *463:A I *D sky130_fd_sc_hd__and2_1
*I *234:DIODE I *D sky130_fd_sc_hd__diode_2
*I *235:DIODE I *D sky130_fd_sc_hd__diode_2
*I *504:HI O *D sky130_fd_sc_hd__conb_1
*CAP
1 one 0.000966791
2 *463:A 2.0864e-05
3 *234:DIODE 6.36588e-05
4 *235:DIODE 0
5 *504:HI 0
6 *17:21 0.000517438
7 *17:5 0.000444327
8 *17:4 0.000978203
9 one zero 4.69495e-06
10 one *18:7 0.000149213
11 one *23:16 0
12 one *35:11 0
13 *463:A *463:B 9.95922e-06
14 *17:5 *26:21 1.88014e-05
15 *17:21 *459:A 0.000116652
16 *17:21 *463:B 1.92337e-05
17 *17:21 *551:A 0.000158002
18 *17:21 *554:A 1.88563e-05
19 *17:21 *20:9 1.5562e-05
20 *17:21 *23:16 0.000110458
21 *17:21 *26:21 0.000267404
22 *17:21 *48:12 0.000158651
23 *17:21 *119:16 6.36477e-05
24 *17:21 *160:19 1.16107e-05
25 *17:21 *161:11 2.3301e-05
26 mgmt_gpio_in one 0.000777219
27 *15:14 one 0.000362329
28 *15:14 *17:5 6.64392e-05
29 *15:14 *17:21 9.17814e-05
30 *16:14 one 0.000166919
*RES
1 *504:HI *17:4 9.24915 
2 *17:4 *17:5 0.723396 
3 *17:5 *235:DIODE 9.24915 
4 *17:5 *17:21 23.2741 
5 *17:21 *234:DIODE 10.5271 
6 *17:21 *463:A 9.82786 
7 *17:4 one 12.5175 
*END

*D_NET *18 0.0054761
*CONN
*P pad_gpio_ana_en O
*I *549:X O *D sky130_fd_sc_hd__buf_2
*CAP
1 pad_gpio_ana_en 0.000711907
2 *549:X 0.000416626
3 *18:7 0.00112853
4 pad_gpio_ana_en *20:9 0
5 pad_gpio_ana_en *20:16 8.85191e-05
6 pad_gpio_ana_en *26:19 5.18137e-05
7 *18:7 *20:9 0
8 one *18:7 0.000149213
9 *16:10 pad_gpio_ana_en 0.00013212
10 *16:14 pad_gpio_ana_en 0.00107932
11 *16:14 *18:7 0.00171804
*RES
1 *549:X *18:7 28.0213 
2 *18:7 pad_gpio_ana_en 37.9425 
*END

*D_NET *19 0.0037203
*CONN
*P pad_gpio_ana_pol O
*I *550:X O *D sky130_fd_sc_hd__buf_2
*CAP
1 pad_gpio_ana_pol 6.97707e-05
2 *550:X 0.000916732
3 *19:10 0.000986503
4 pad_gpio_ana_pol pad_gpio_ana_sel 3.84497e-05
5 pad_gpio_ana_pol *23:16 4.07914e-06
6 *19:10 *20:9 0
7 *19:10 *20:16 0
8 *19:10 *36:15 0.00106563
9 *19:10 *36:29 0.000391697
10 *19:10 *50:25 0.000247443
*RES
1 *550:X *19:10 49.8323 
2 *19:10 pad_gpio_ana_pol 0.216168 
*END

*D_NET *20 0.00818947
*CONN
*P pad_gpio_ana_sel O
*I *551:X O *D sky130_fd_sc_hd__buf_2
*CAP
1 pad_gpio_ana_sel 0.000364287
2 *551:X 0.000916557
3 *20:16 0.00118573
4 *20:9 0.001738
5 pad_gpio_ana_sel pad_gpio_dm[0] 3.84497e-05
6 pad_gpio_ana_sel pad_gpio_dm[2] 0.000786737
7 pad_gpio_ana_sel *42:17 0.000301917
8 *20:9 *404:A 6.27782e-05
9 *20:9 *460:B_N 1.82679e-05
10 *20:9 *461:A 0.000205101
11 *20:9 *554:A 7.76105e-06
12 *20:9 *23:16 0.000233562
13 *20:9 *50:25 0.000129063
14 *20:9 *174:11 1.45322e-05
15 *20:16 *23:22 0.00201595
16 *20:16 *26:19 2.82537e-05
17 pad_gpio_ana_en *20:9 0
18 pad_gpio_ana_en *20:16 8.85191e-05
19 pad_gpio_ana_pol pad_gpio_ana_sel 3.84497e-05
20 *17:21 *20:9 1.5562e-05
21 *18:7 *20:9 0
22 *19:10 *20:9 0
23 *19:10 *20:16 0
*RES
1 *551:X *20:9 34.4233 
2 *20:9 *20:16 41.0803 
3 *20:16 pad_gpio_ana_sel 26.3797 
*END

*D_NET *21 0.00349816
*CONN
*P pad_gpio_dm[0] O
*I *552:X O *D sky130_fd_sc_hd__buf_2
*CAP
1 pad_gpio_dm[0] 3.37372e-05
2 *552:X 0.00117807
3 *21:8 0.00121181
4 pad_gpio_dm[0] pad_gpio_dm[1] 4.31122e-05
5 *21:8 serial_load_out 9.82882e-05
6 *21:8 *472:A1 0.000247443
7 *21:8 *473:A1 0.000294093
8 *21:8 *552:A 2.16355e-05
9 *21:8 *39:29 0.000149001
10 *21:8 *42:17 0
11 *21:8 *79:15 1.30118e-05
12 *21:8 *160:19 1.34424e-05
13 *21:8 *160:28 0.000156076
14 pad_gpio_ana_sel pad_gpio_dm[0] 3.84497e-05
*RES
1 *552:X *21:8 47.7093 
2 *21:8 pad_gpio_dm[0] 3.58495 
*END

*D_NET *22 0.00429389
*CONN
*P pad_gpio_dm[1] O
*I *553:X O *D sky130_fd_sc_hd__buf_2
*CAP
1 pad_gpio_dm[1] 0.00018456
2 *553:X 0.00125522
3 *22:7 0.00143978
4 pad_gpio_dm[1] pad_gpio_dm[2] 3.84497e-05
5 pad_gpio_dm[1] serial_load_out 0.000343222
6 *22:7 pad_gpio_holdover 0.000564805
7 *22:7 *474:A 0.000114594
8 *22:7 *136:11 0.000304143
9 *22:7 *153:39 6.00782e-06
10 pad_gpio_dm[0] pad_gpio_dm[1] 4.31122e-05
*RES
1 *553:X *22:7 46.0849 
2 *22:7 pad_gpio_dm[1] 9.36185 
*END

*D_NET *23 0.0105938
*CONN
*P pad_gpio_dm[2] O
*I *554:X O *D sky130_fd_sc_hd__buf_2
*CAP
1 pad_gpio_dm[2] 0.000498223
2 *554:X 0.00167986
3 *23:22 0.000976017
4 *23:16 0.00215765
5 pad_gpio_dm[2] pad_gpio_holdover 5.76421e-05
6 pad_gpio_dm[2] serial_load_out 0.000348994
7 pad_gpio_dm[2] *36:15 0.000840048
8 pad_gpio_dm[2] *41:8 0.000247244
9 pad_gpio_dm[2] *42:17 0
10 *23:16 *412:A 1.20726e-05
11 *23:16 *42:33 0.000100244
12 *23:16 *160:19 0.000133334
13 *23:16 *184:8 4.2185e-05
14 *23:22 *26:19 0.000311015
15 *23:22 *36:15 0
16 one *23:16 0
17 pad_gpio_ana_pol *23:16 4.07914e-06
18 pad_gpio_ana_sel pad_gpio_dm[2] 0.000786737
19 pad_gpio_dm[1] pad_gpio_dm[2] 3.84497e-05
20 *17:21 *23:16 0.000110458
21 *20:9 *23:16 0.000233562
22 *20:16 *23:22 0.00201595
*RES
1 *554:X *23:16 32.306 
2 *23:16 *23:22 32.6247 
3 *23:22 pad_gpio_dm[2] 36.5015 
*END

*D_NET *24 0.0100681
*CONN
*P pad_gpio_holdover O
*I *555:X O *D sky130_fd_sc_hd__buf_2
*CAP
1 pad_gpio_holdover 0.000776249
2 *555:X 0.00183928
3 *24:26 0.00261553
4 pad_gpio_holdover pad_gpio_ib_mode_sel 0.000700674
5 *24:26 *386:A 2.91008e-06
6 *24:26 *394:A 2.02035e-05
7 *24:26 *485:RESET_B 3.17436e-05
8 *24:26 *505:A 4.9696e-05
9 *24:26 *505:TE 0.000157392
10 *24:26 *528:A 0.000198948
11 *24:26 *42:33 0.000322107
12 *24:26 *79:15 0.000222501
13 *24:26 *132:14 5.32471e-05
14 *24:26 *160:28 0.000322047
15 *24:26 *167:19 0.000191416
16 *24:26 *169:20 0.00178628
17 *24:26 *170:18 3.47489e-06
18 *24:26 *184:8 0.000130085
19 pad_gpio_dm[2] pad_gpio_holdover 5.76421e-05
20 *540:A *24:26 2.19079e-05
21 *22:7 pad_gpio_holdover 0.000564805
*RES
1 *555:X *24:26 47.1562 
2 *24:26 pad_gpio_holdover 3.65823 
*END

*D_NET *25 0.00731394
*CONN
*P pad_gpio_ib_mode_sel O
*I *556:X O *D sky130_fd_sc_hd__buf_2
*CAP
1 pad_gpio_ib_mode_sel 0.00254188
2 *556:X 0.00254188
3 pad_gpio_ib_mode_sel pad_gpio_inenb 0