*SPEF "ieee 1481-1999"
*DESIGN "gpio_control_block"
*DATE "11:11:11 Fri 11 11, 1111"
*VENDOR "OpenRCX"
*PROGRAM "Parallel Extraction"
*VERSION "1.0"
*DESIGN_FLOW "NAME_SCOPE LOCAL" "PIN_CAP NONE"
*DIVIDER /
*DELIMITER :
*BUS_DELIMITER []
*T_UNIT 1 NS
*C_UNIT 1 PF
*R_UNIT 1 OHM
*L_UNIT 1 HENRY

*NAME_MAP
*1 gpio_defaults[0]
*2 gpio_defaults[10]
*3 gpio_defaults[11]
*4 gpio_defaults[12]
*5 gpio_defaults[1]
*6 gpio_defaults[2]
*7 gpio_defaults[3]
*8 gpio_defaults[4]
*9 gpio_defaults[5]
*10 gpio_defaults[6]
*11 gpio_defaults[7]
*12 gpio_defaults[8]
*13 gpio_defaults[9]
*14 mgmt_gpio_in
*15 mgmt_gpio_oeb
*16 mgmt_gpio_out
*17 one
*18 pad_gpio_ana_en
*19 pad_gpio_ana_pol
*20 pad_gpio_ana_sel
*21 pad_gpio_dm[0]
*22 pad_gpio_dm[1]
*23 pad_gpio_dm[2]
*24 pad_gpio_holdover
*25 pad_gpio_ib_mode_sel
*26 pad_gpio_in
*27 pad_gpio_inenb
*28 pad_gpio_out
*29 pad_gpio_outenb
*30 pad_gpio_slow_sel
*31 pad_gpio_vtrip_sel
*32 resetn
*33 resetn_out
*34 serial_clock
*35 serial_clock_out
*36 serial_data_in
*37 serial_data_out
*38 serial_load
*39 serial_load_out
*40 user_gpio_in
*41 user_gpio_oeb
*42 user_gpio_out
*47 zero
*48 _000_
*49 _001_
*50 _002_
*51 _003_
*52 _004_
*53 _005_
*54 _006_
*55 _007_
*56 _008_
*57 _009_
*58 _010_
*59 _011_
*60 _012_
*61 _013_
*62 _014_
*63 _015_
*64 _016_
*65 _017_
*66 _018_
*67 _019_
*68 _020_
*69 _021_
*70 _022_
*71 _023_
*72 _024_
*73 _025_
*74 _026_
*75 _027_
*76 _041_
*77 _042_
*78 _043_
*79 _044_
*80 _045_
*81 _046_
*82 _047_
*83 _048_
*84 _049_
*85 _050_
*86 _051_
*87 _052_
*88 _053_
*89 _054_
*90 _055_
*91 _056_
*92 _057_
*93 _058_
*94 _059_
*95 _060_
*96 _061_
*97 _062_
*98 _063_
*99 _064_
*100 _065_
*101 _066_
*102 _067_
*103 _068_
*104 _069_
*105 _070_
*106 _071_
*107 _072_
*108 _073_
*109 _074_
*110 _075_
*111 _076_
*112 _077_
*113 _078_
*114 _079_
*115 _080_
*116 _081_
*117 _082_
*118 _083_
*119 _084_
*120 _085_
*121 _086_
*122 _087_
*123 _088_
*124 _089_
*125 _090_
*126 _091_
*127 _092_
*128 _093_
*129 _094_
*130 _095_
*131 clknet_0__049_
*132 clknet_0__077_
*133 clknet_0_serial_clock
*134 clknet_0_serial_load
*135 clknet_1_0_0__049_
*136 clknet_1_0_0__077_
*137 clknet_1_0_0_serial_clock
*138 clknet_1_0_0_serial_load
*139 clknet_1_1_0__049_
*140 clknet_1_1_0__077_
*141 clknet_1_1_0_serial_clock
*142 clknet_1_1_0_serial_load
*143 gpio_logic1
*144 gpio_outenb
*145 mgmt_ena
*146 net1
*147 net10
*148 net11
*149 net12
*150 net13
*151 net14
*152 net15
*153 net16
*154 net17
*155 net18
*156 net19
*157 net2
*158 net20
*159 net21
*160 net22
*161 net23
*162 net24
*163 net25
*164 net26
*165 net27
*166 net28
*167 net29
*168 net3
*169 net30
*170 net31
*171 net32
*172 net33
*173 net34
*174 net35
*175 net36
*176 net4
*177 net5
*178 net6
*179 net7
*180 net8
*181 net9
*182 serial_data_post_1
*183 serial_data_post_2
*184 serial_data_pre
*185 shift_register\[0\]
*186 shift_register\[10\]
*187 shift_register\[11\]
*188 shift_register\[1\]
*189 shift_register\[2\]
*190 shift_register\[3\]
*191 shift_register\[4\]
*192 shift_register\[5\]
*193 shift_register\[6\]
*194 shift_register\[7\]
*195 shift_register\[8\]
*196 shift_register\[9\]
*197 ANTENNA__096__A
*198 ANTENNA__098__B
*199 ANTENNA__099__A2
*200 ANTENNA__100__A
*201 ANTENNA__101__A
*202 ANTENNA__102__A
*203 ANTENNA__106__A
*204 ANTENNA__109__A
*205 ANTENNA__110__B
*206 ANTENNA__114__A
*207 ANTENNA__116__B_N
*208 ANTENNA__118__B
*209 ANTENNA__121__B_N
*210 ANTENNA__124__B
*211 ANTENNA__127__B_N
*212 ANTENNA__129__B
*213 ANTENNA__132__B_N
*214 ANTENNA__134__B
*215 ANTENNA__137__B_N
*216 ANTENNA__139__B
*217 ANTENNA__144__B_N
*218 ANTENNA__146__B
*219 ANTENNA__149__B_N
*220 ANTENNA__152__B
*221 ANTENNA__155__B_N
*222 ANTENNA__157__B
*223 ANTENNA__160__B_N
*224 ANTENNA__162__B
*225 ANTENNA__165__B_N
*226 ANTENNA__167__B
*227 ANTENNA__170__B_N
*228 ANTENNA__172__B
*229 ANTENNA__175__B_N
*230 ANTENNA__177__B
*231 ANTENNA__180__B_N
*232 ANTENNA__195__D
*233 ANTENNA__195__RESET_B
*234 ANTENNA__196__RESET_B
*235 ANTENNA__197__RESET_B
*236 ANTENNA__198__RESET_B
*237 ANTENNA__199__RESET_B
*238 ANTENNA__200__RESET_B
*239 ANTENNA__201__RESET_B
*240 ANTENNA__202__RESET_B
*241 ANTENNA__203__RESET_B
*242 ANTENNA__204__RESET_B
*243 ANTENNA__205__RESET_B
*244 ANTENNA__206__RESET_B
*245 ANTENNA__207__RESET_B
*246 ANTENNA__208__A
*247 ANTENNA__211__A
*248 ANTENNA_clkbuf_0_serial_clock_A
*249 ANTENNA_clkbuf_0_serial_load_A
*250 FILLER_0_47
*251 FILLER_0_84
*252 FILLER_0_93
*253 FILLER_10_27
*254 FILLER_10_3
*255 FILLER_11_24
*256 FILLER_11_60
*257 FILLER_12_3
*258 FILLER_12_83
*259 FILLER_12_93
*260 FILLER_13_3
*261 FILLER_13_69
*262 FILLER_14_3
*263 FILLER_14_42
*264 FILLER_14_93
*265 FILLER_15_24
*266 FILLER_15_93
*267 FILLER_16_27
*268 FILLER_16_3
*269 FILLER_16_93
*270 FILLER_17_3
*271 FILLER_17_45
*272 FILLER_17_48
*273 FILLER_18_27
*274 FILLER_18_3
*275 FILLER_18_31
*276 FILLER_18_63
*277 FILLER_18_83
*278 FILLER_1_26
*279 FILLER_1_78
*280 FILLER_2_47
*281 FILLER_3_26
*282 FILLER_3_57
*283 FILLER_3_83
*284 FILLER_3_93
*285 FILLER_5_26
*286 FILLER_5_32
*287 FILLER_6_29
*288 FILLER_7_34
*289 FILLER_9_3
*290 PHY_0
*291 PHY_1
*292 PHY_10
*293 PHY_11
*294 PHY_12
*295 PHY_13
*296 PHY_14
*297 PHY_15
*298 PHY_16
*299 PHY_17
*300 PHY_18
*301 PHY_19
*302 PHY_2
*303 PHY_20
*304 PHY_21
*305 PHY_22
*306 PHY_23
*307 PHY_24
*308 PHY_25
*309 PHY_26
*310 PHY_27
*311 PHY_28
*312 PHY_29
*313 PHY_3
*314 PHY_30
*315 PHY_31
*316 PHY_32
*317 PHY_33
*318 PHY_34
*319 PHY_35
*320 PHY_36
*321 PHY_37
*322 PHY_4
*323 PHY_5
*324 PHY_6
*325 PHY_7
*326 PHY_8
*327 PHY_9
*328 TAP_38
*329 TAP_39
*330 TAP_40
*331 TAP_41
*332 TAP_42
*333 TAP_43
*334 TAP_44
*335 TAP_45
*336 TAP_46
*337 TAP_47
*338 TAP_48
*339 TAP_49
*340 TAP_50
*341 TAP_51
*342 TAP_52
*343 TAP_53
*344 TAP_54
*345 TAP_55
*346 TAP_56
*347 TAP_57
*348 TAP_58
*349 TAP_59
*350 TAP_60
*351 TAP_61
*352 TAP_62
*353 TAP_63
*354 TAP_64
*355 TAP_65
*356 _096_
*357 _097_
*358 _098_
*359 _099_
*360 _100_
*361 _101_
*362 _102_
*363 _103_
*364 _104_
*365 _105_
*366 _106_
*367 _107_
*368 _108_
*369 _109_
*370 _110_
*371 _111_
*372 _112_
*373 _113__4
*374 _114_
*375 _115_
*376 _116_
*377 _117_
*378 _118_
*379 _119_
*380 _120__5
*381 _121_
*382 _122_
*383 _123_
*384 _124_
*385 _125_
*386 _126__6
*387 _127_
*388 _128_
*389 _129_
*390 _130_
*391 _131__7
*392 _132_
*393 _133_
*394 _134_
*395 _135_
*396 _136__8
*397 _137_
*398 _138_
*399 _139_
*400 _140_
*401 _141_
*402 _142__9
*403 _143_
*404 _144_
*405 _145_
*406 _146_
*407 _147_
*408 _148__10
*409 _149_
*410 _150_
*411 _151_
*412 _152_
*413 _153_
*414 _154__11
*415 _155_
*416 _156_
*417 _157_
*418 _158_
*419 _159__12
*420 _160_
*421 _161_
*422 _162_
*423 _163_
*424 _164__13
*425 _165_
*426 _166_
*427 _167_
*428 _168_
*429 _169__1
*430 _170_
*431 _171_
*432 _172_
*433 _173_
*434 _174__2
*435 _175_
*436 _176_
*437 _177_
*438 _178_
*439 _179__3
*440 _180_
*441 _181_
*442 _182_
*443 _183_
*444 _184_
*445 _185_
*446 _186_
*447 _187_
*448 _188_
*449 _189_
*450 _190_
*451 _191_
*452 _192_
*453 _193_
*454 _194_
*455 _195_
*456 _196_
*457 _197_
*458 _198_
*459 _199_
*460 _200_
*461 _201_
*462 _202_
*463 _203_
*464 _204_
*465 _205_
*466 _206_
*467 _207_
*468 _208_
*469 _209_
*470 _210_
*471 _211_
*472 clkbuf_0__049_
*473 clkbuf_0__077_
*474 clkbuf_0_serial_clock
*475 clkbuf_0_serial_load
*476 clkbuf_1_0_0__049_
*477 clkbuf_1_0_0__077_
*478 clkbuf_1_0_0_serial_clock
*479 clkbuf_1_0_0_serial_load
*480 clkbuf_1_1_0__049_
*481 clkbuf_1_1_0__077_
*482 clkbuf_1_1_0_serial_clock
*483 clkbuf_1_1_0_serial_load
*484 const_source
*485 data_delay_1
*486 data_delay_2
*487 gpio_in_buf
*488 gpio_logic_high
*489 hold1
*490 hold10
*491 hold11
*492 hold12
*493 hold13
*494 hold14
*495 hold15
*496 hold16
*497 hold17
*498 hold18
*499 hold19
*500 hold2
*501 hold20
*502 hold21
*503 hold22
*504 hold23
*505 hold3
*506 hold4
*507 hold5
*508 hold6
*509 hold7
*510 hold8
*511 hold9

*PORTS
gpio_defaults[0] I
gpio_defaults[10] I
gpio_defaults[11] I
gpio_defaults[12] I
gpio_defaults[1] I
gpio_defaults[2] I
gpio_defaults[3] I
gpio_defaults[4] I
gpio_defaults[5] I
gpio_defaults[6] I
gpio_defaults[7] I
gpio_defaults[8] I
gpio_defaults[9] I
mgmt_gpio_in O
mgmt_gpio_oeb I
mgmt_gpio_out I
one O
pad_gpio_ana_en O
pad_gpio_ana_pol O
pad_gpio_ana_sel O
pad_gpio_dm[0] O
pad_gpio_dm[1] O
pad_gpio_dm[2] O
pad_gpio_holdover O
pad_gpio_ib_mode_sel O
pad_gpio_in I
pad_gpio_inenb O
pad_gpio_out O
pad_gpio_outenb O
pad_gpio_slow_sel O
pad_gpio_vtrip_sel O
resetn I
resetn_out O
serial_clock I
serial_clock_out O
serial_data_in I
serial_data_out O
serial_load I
serial_load_out O
user_gpio_in O
user_gpio_oeb I
user_gpio_out I
zero O

*D_NET *1 0.00461701
*CONN
*P gpio_defaults[0] I
*I *205:DIODE I *D sky130_fd_sc_hd__diode_2
*I *370:B I *D sky130_fd_sc_hd__or2_2
*I *376:B_N I *D sky130_fd_sc_hd__or2b_2
*I *207:DIODE I *D sky130_fd_sc_hd__diode_2
*CAP
1 gpio_defaults[0] 0.000349196
2 *205:DIODE 8.15998e-05
3 *370:B 0
4 *376:B_N 0.000257674
5 *207:DIODE 3.86313e-05
6 *1:33 0.000118698
7 *1:21 0.000570127
8 *1:9 0.000663183
9 *205:DIODE *370:A 4.58907e-05
10 *205:DIODE *371:A 6.55651e-05
11 *205:DIODE *442:SET_B 9.94284e-06
12 *205:DIODE *6:11 0.000269312
13 *207:DIODE *5:12 6.34391e-05
14 *376:B_N *232:DIODE 0.000316135
15 *376:B_N *377:A 0.000275977
16 *376:B_N *442:D 3.16904e-05
17 *376:B_N *477:A 0.000553693
18 *376:B_N *6:28 0.000202726
19 *376:B_N *162:5 9.88442e-05
20 *1:9 *5:12 0.000221502
21 *1:21 *206:DIODE 3.99086e-06
22 *1:21 *232:DIODE 3.31745e-05
23 *1:21 *373:A 0.000209636
24 *1:21 *5:12 4.35492e-05
25 *1:33 *232:DIODE 2.16355e-05
26 *1:33 *442:SET_B 6.3657e-05
27 *1:33 *6:11 7.54269e-06
*RES
1 gpio_defaults[0] *1:9 11.5416 
2 *1:9 *207:DIODE 14.9583 
3 *1:9 *1:21 11.0087 
4 *1:21 *376:B_N 30.9183 
5 *1:21 *1:33 1.278 
6 *1:33 *370:B 9.24915 
7 *1:33 *205:DIODE 13.1796 
*END

*D_NET *2 0.00785642
*CONN
*P gpio_defaults[10] I
*I *221:DIODE I *D sky130_fd_sc_hd__diode_2
*I *415:B_N I *D sky130_fd_sc_hd__or2b_2
*I *412:B I *D sky130_fd_sc_hd__or2_2
*I *220:DIODE I *D sky130_fd_sc_hd__diode_2
*CAP
1 gpio_defaults[10] 0.000508793
2 *221:DIODE 7.01533e-05
3 *415:B_N 2.50285e-05
4 *412:B 0
5 *220:DIODE 0.000264589
6 *2:20 0.000690673
7 *2:13 0.000917389
8 *2:10 0.00104522
9 *220:DIODE *497:A 2.06573e-05
10 *220:DIODE *113:76 0.000525502
11 *221:DIODE *414:A 6.54273e-05
12 *415:B_N *199:DIODE 2.16355e-05
13 *415:B_N *100:7 2.16355e-05
14 *2:10 *390:A 0.000209952
15 *2:10 *414:A 0.000128012
16 *2:10 *3:21 0
17 *2:10 *13:5 0
18 *2:13 *199:DIODE 4.80576e-05
19 *2:13 *384:B 0.000325683
20 *2:13 *464:CLK 5.01737e-05
21 *2:13 *473:A 2.82424e-05
22 *2:13 *481:A 0.000128231
23 *2:13 *483:A 0.00010857
24 *2:13 *4:14 0.000400871
25 *2:13 *12:11 0.000132607
26 *2:13 *131:30 1.93184e-05
27 *2:13 *166:8 1.01202e-05
28 *2:20 *199:DIODE 0.00016698
29 *2:20 *359:B1 0.000374791
30 *2:20 *483:A 0.000173574
31 *2:20 *497:A 0.000108664
32 *2:20 *504:A 0.000205527
33 *2:20 *508:A 0.000205659
34 *2:20 *113:76 0.000854681
*RES
1 gpio_defaults[10] *2:10 17.0587 
2 *2:10 *2:13 20.4506 
3 *2:13 *2:20 22.051 
4 *2:20 *220:DIODE 26.3747 
5 *2:20 *412:B 9.24915 
6 *2:13 *415:B_N 14.4725 
7 *2:10 *221:DIODE 11.0817 
*END

*D_NET *3 0.0115649
*CONN
*P gpio_defaults[11] I
*I *417:B I *D sky130_fd_sc_hd__or2_2
*I *222:DIODE I *D sky130_fd_sc_hd__diode_2
*I *420:B_N I *D sky130_fd_sc_hd__or2b_2
*I *223:DIODE I *D sky130_fd_sc_hd__diode_2
*CAP
1 gpio_defaults[11] 0.00125938
2 *417:B 0
3 *222:DIODE 0.000238871
4 *420:B_N 0.000668598
5 *223:DIODE 0.000518061
6 *3:55 0.000426617
7 *3:27 0.00146368
8 *3:23 0.000700772
9 *3:21 0.00149538
10 *222:DIODE pad_gpio_ib_mode_sel 0.000109421
11 *222:DIODE *364:A1 6.27718e-05
12 *222:DIODE *364:A2 6.36477e-05
13 *222:DIODE *364:B1 6.27718e-05
14 *222:DIODE *365:B2 3.96508e-05
15 *222:DIODE *417:A 2.58757e-05
16 *222:DIODE *418:A 7.70513e-05
17 *222:DIODE *40:17 0.000403479
18 *223:DIODE *410:A 0.000161262
19 *223:DIODE *432:A 1.65872e-05
20 *223:DIODE *432:B 8.58353e-05
21 *223:DIODE *448:SET_B 0.000136505
22 *223:DIODE *450:D 4.24488e-05
23 *223:DIODE *98:22 2.17403e-05
24 *223:DIODE *99:16 0.000110458
25 *420:B_N *423:A 3.06664e-05
26 *420:B_N *426:A 0.000129005
27 *420:B_N *450:RESET_B 6.46815e-05
28 *420:B_N *450:SET_B 2.73467e-05
29 *420:B_N *496:A 9.23149e-06
30 *420:B_N *15:28 6.27718e-05
31 *3:21 *384:A 0.000256037
32 *3:21 *384:B 7.18043e-05
33 *3:21 *385:A 3.82228e-05
34 *3:21 *386:A 1.59362e-06
35 *3:21 *388:A 0.00019761
36 *3:21 *390:A 6.96846e-05
37 *3:21 *444:CLK_N 2.82641e-05
38 *3:21 *473:A 0.000159851
39 *3:21 *4:14 0
40 *3:21 *4:15 0.000115995
41 *3:21 *12:11 5.82482e-05
42 *3:21 *27:10 0.00017472
43 *3:21 *91:25 1.5714e-05
44 *3:21 *141:69 0.000145767
45 *3:21 *145:12 6.30698e-05
46 *3:21 *148:13 8.03626e-05
47 *3:23 *450:D 0.000465402
48 *3:23 *4:15 3.4149e-07
49 *3:23 *85:17 0.000139232
50 *3:23 *85:38 2.91161e-05
51 *3:23 *148:13 9.97927e-05
52 *3:23 *155:8 8.70662e-06
53 *3:27 *450:D 0.000481168
54 *3:27 *32:20 7.66829e-05
55 *3:27 *85:17 5.9955e-05
56 *3:55 pad_gpio_ib_mode_sel 0.000213027
57 *2:10 *3:21 0
*RES
1 gpio_defaults[11] *3:21 45.4873 
2 *3:21 *3:23 9.51416 
3 *3:23 *3:27 13.8065 
4 *3:27 *223:DIODE 20.7511 
5 *3:27 *420:B_N 29.5683 
6 *3:23 *3:55 10.2148 
7 *3:55 *222:DIODE 18.3157 
8 *3:55 *417:B 9.24915 
*END

*D_NET *4 0.0142423
*CONN
*P gpio_defaults[12] I
*I *225:DIODE I *D sky130_fd_sc_hd__diode_2
*I *425:B_N I *D sky130_fd_sc_hd__or2b_2
*I *224:DIODE I *D sky130_fd_sc_hd__diode_2
*I *422:B I *D sky130_fd_sc_hd__or2_2
*CAP
1 gpio_defaults[12] 0.000961212
2 *225:DIODE 0.00178778
3 *425:B_N 0.000125968
4 *224:DIODE 0.00102576
5 *422:B 2.4452e-05
6 *4:19 0.00115057
7 *4:17 0.000306908
8 *4:15 0.00227954
9 *4:14 0.00137239
10 *224:DIODE pad_gpio_ana_sel 0.000192886
11 *224:DIODE *450:D 0.000179114
12 *224:DIODE *451:CLK_N 5.22609e-05
13 *224:DIODE *478:A 0.000306074
14 *224:DIODE *501:A 0.000131374
15 *224:DIODE *32:20 0
16 *224:DIODE *100:10 0.000175475
17 *225:DIODE pad_gpio_holdover 0
18 *225:DIODE pad_gpio_outenb 0
19 *225:DIODE *230:DIODE 6.31889e-06
20 *225:DIODE *405:A 4.20184e-06
21 *225:DIODE *457:D 0
22 *422:B *15:28 0.000109421
23 *422:B *89:38 0.000107496
24 *425:B_N *34:21 6.27718e-05
25 *425:B_N *34:31 0.000596431
26 *425:B_N *40:10 0.000623727
27 *4:14 *388:A 6.13782e-05
28 *4:14 *444:D 0.000222275
29 *4:14 *464:D 6.27718e-05
30 *4:14 *481:A 0.000129489
31 *4:14 *12:11 2.26719e-05
32 *4:14 *141:63 8.9517e-06
33 *4:14 *145:65 5.1674e-06
34 *4:14 *166:8 1.09375e-05
35 *4:15 *388:A 4.418e-05
36 *4:15 *450:D 0.000120698
37 *4:15 *466:D 0.000140741
38 *4:15 *91:25 1.85244e-05
39 *4:15 *100:10 0.000707429
40 *4:15 *155:8 0.000132802
41 *4:15 *166:8 1.10274e-05
42 *4:17 *450:D 5.83069e-05
43 *4:17 *100:10 0.000140149
44 *4:19 *450:D 6.32012e-05
45 *4:19 *100:10 0.000182311
46 *2:13 *4:14 0.000400871
47 *3:21 *4:14 0
48 *3:21 *4:15 0.000115995
49 *3:23 *4:15 3.4149e-07
*RES
1 gpio_defaults[12] *4:14 34.3166 
2 *4:14 *4:15 16.1582 
3 *4:15 *4:17 2.87013 
4 *4:17 *4:19 3.493 
5 *4:19 *422:B 15.0271 
6 *4:19 *224:DIODE 36.0164 
7 *4:17 *425:B_N 21.8753 
8 *4:15 *225:DIODE 24.3573 
*END

*D_NET *5 0.0116146
*CONN
*P gpio_defaults[1] I
*I *219:DIODE I *D sky130_fd_sc_hd__diode_2
*I *218:DIODE I *D sky130_fd_sc_hd__diode_2
*I *406:B I *D sky130_fd_sc_hd__or2_2
*I *409:B_N I *D sky130_fd_sc_hd__or2b_2
*CAP
1 gpio_defaults[1] 0.00184071
2 *219:DIODE 0.000354916
3 *218:DIODE 0.00112629
4 *406:B 2.4719e-05
5 *409:B_N 2.1308e-05
6 *5:27 0.00130796
7 *5:22 0.000566779
8 *5:14 0.000258079
9 *5:12 0.00202257
10 *218:DIODE *401:A 1.66771e-05
11 *218:DIODE *444:SET_B 0
12 *218:DIODE *464:RESET_B 0.000157107
13 *218:DIODE *475:A 0.000127384
14 *218:DIODE *497:A 6.08467e-05
15 *218:DIODE *32:14 0
16 *218:DIODE *32:86 0.000151708
17 *218:DIODE *76:10 3.42037e-06
18 *218:DIODE *91:25 0.000250273
19 *218:DIODE *103:28 0
20 *218:DIODE *145:23 2.31261e-05
21 *219:DIODE *359:A3 2.58616e-05
22 *219:DIODE *401:A 1.18339e-05
23 *219:DIODE *447:RESET_B 4.24488e-05
24 *219:DIODE *482:A 0.000501884
25 *219:DIODE *76:10 7.13972e-05
26 *219:DIODE *88:16 0.000453541
27 *219:DIODE *145:12 2.99943e-05
28 *219:DIODE *145:23 1.91391e-05
29 *406:B *437:B 7.48546e-05
30 *406:B *113:23 2.24598e-05
31 *5:12 *208:DIODE 2.78772e-05
32 *5:12 *448:CLK_N 2.7404e-05
33 *5:12 *477:A 0.000201811
34 *5:12 *491:A 5.62448e-05
35 *5:12 *509:A 7.18098e-05
36 *5:12 *511:A 0.000144141
37 *5:12 *6:11 0
38 *5:12 *7:10 0
39 *5:12 *32:93 5.33198e-05
40 *5:12 *32:221 0.000203319
41 *5:12 *32:236 0.000231941
42 *5:12 *136:13 3.27973e-05
43 *5:14 *404:A 0.000164855
44 *5:14 *510:A 6.08467e-05
45 *5:14 *32:93 8.71622e-05
46 *5:14 *158:8 2.97222e-05
47 *5:22 *404:A 2.99287e-05
48 *5:22 *76:10 2.57847e-05
49 *5:27 *400:A 0.000129489
50 *5:27 *401:A 1.08647e-05
51 *5:27 *76:10 0.000129489
52 *207:DIODE *5:12 6.34391e-05
53 *1:9 *5:12 0.000221502
54 *1:21 *5:12 4.35492e-05
*RES
1 gpio_defaults[1] *5:12 48.5125 
2 *5:12 *5:14 5.71483 
3 *5:14 *409:B_N 9.82786 
4 *5:14 *5:22 1.8326 
5 *5:22 *5:27 8.7258 
6 *5:27 *406:B 14.8342 
7 *5:27 *218:DIODE 27.1914 
8 *5:22 *219:DIODE 31.2209 
*END

*D_NET *6 0.00611079
*CONN
*P gpio_defaults[2] I
*I *209:DIODE I *D sky130_fd_sc_hd__diode_2
*I *381:B_N I *D sky130_fd_sc_hd__or2b_2
*I *378:B I *D sky130_fd_sc_hd__or2_2
*I *208:DIODE I *D sky130_fd_sc_hd__diode_2
*CAP
1 gpio_defaults[2] 0.000509067
2 *209:DIODE 0
3 *381:B_N 0
4 *378:B 0
5 *208:DIODE 0.000215124
6 *6:28 0.000634562
7 *6:15 0.000608051
8 *6:11 0.00069768
9 *208:DIODE *456:D 9.76854e-05
10 *208:DIODE *490:A 6.46815e-05
11 *208:DIODE *136:13 0.000235459
12 *208:DIODE *160:8 0.000263116
13 *6:11 *206:DIODE 0.000165511
14 *6:11 *232:DIODE 0.000307799
15 *6:11 *371:A 3.96696e-05
16 *6:11 *442:RESET_B 1.99054e-05
17 *6:11 *7:10 0.000660979
18 *6:11 *10:10 0.000102747
19 *6:11 *32:236 1.37421e-05
20 *6:15 *442:RESET_B 0.000109978
21 *6:15 *9:11 0
22 *6:15 *10:10 0.0003084
23 *6:28 *216:DIODE 2.46287e-05
24 *6:28 *455:D 5.21825e-05
25 *6:28 *477:A 6.89977e-05
26 *6:28 *8:7 0.000339715
27 *6:28 *136:13 6.36477e-05
28 *205:DIODE *6:11 0.000269312
29 *376:B_N *6:28 0.000202726
30 *1:33 *6:11 7.54269e-06
31 *5:12 *208:DIODE 2.78772e-05
32 *5:12 *6:11 0
*RES
1 gpio_defaults[2] *6:11 28.0602 
2 *6:11 *6:15 10.4845 
3 *6:15 *6:28 22.0719 
4 *6:28 *208:DIODE 26.3506 
5 *6:28 *378:B 9.24915 
6 *6:15 *381:B_N 9.24915 
7 *6:11 *209:DIODE 13.7491 
*END

*D_NET *7 0.0034388
*CONN
*P gpio_defaults[3] I
*I *214:DIODE I *D sky130_fd_sc_hd__diode_2
*I *394:B I *D sky130_fd_sc_hd__or2_2
*I *397:B_N I *D sky130_fd_sc_hd__or2b_2
*I *215:DIODE I *D sky130_fd_sc_hd__diode_2
*CAP
1 gpio_defaults[3] 0.000805804
2 *214:DIODE 0
3 *394:B 6.99171e-05
4 *397:B_N 7.37217e-05
5 *215:DIODE 0
6 *7:20 0.000313166
7 *7:16 0.00025252
8 *7:10 0.000888797
9 *394:B *414:A 5.04829e-06
10 *397:B_N *206:DIODE 2.16355e-05
11 *397:B_N *398:A 0.000205933
12 *397:B_N *446:SET_B 0.000139684
13 *7:10 *206:DIODE 1.59362e-06
14 *7:10 *8:7 0
15 *5:12 *7:10 0
16 *6:11 *7:10 0.000660979
*RES
1 gpio_defaults[3] *7:10 20.3819 
2 *7:10 *215:DIODE 9.24915 
3 *7:10 *7:16 1.278 
4 *7:16 *7:20 3.64109 
5 *7:20 *397:B_N 21.635 
6 *7:20 *394:B 10.5271 
7 *7:16 *214:DIODE 9.24915 
*END

*D_NET *8 0.00881481
*CONN
*P gpio_defaults[4] I
*I *399:B I *D sky130_fd_sc_hd__or2_2
*I *217:DIODE I *D sky130_fd_sc_hd__diode_2
*I *404:B_N I *D sky130_fd_sc_hd__or2b_2
*I *216:DIODE I *D sky130_fd_sc_hd__diode_2
*CAP
1 gpio_defaults[4] 0.000669878
2 *399:B 0.000440007
3 *217:DIODE 0
4 *404:B_N 8.37864e-05
5 *216:DIODE 0.000440112
6 *8:40 0.000744493
7 *8:37 0.00141402
8 *8:7 0.0014233
9 *216:DIODE *230:DIODE 0.000167213
10 *216:DIODE *443:CLK_N 0.000243681
11 *216:DIODE *110:10 1.12e-05
12 *399:B *437:B 1.65872e-05
13 *399:B *11:14 0.000212952
14 *404:B_N *447:D 1.14086e-05
15 *404:B_N *487:TE 0.000360959
16 *404:B_N *9:13 5.33048e-05
17 *404:B_N *34:31 0.000358177
18 *8:7 *232:DIODE 8.65953e-06
19 *8:7 *370:A 0.000668211
20 *8:7 *455:D 2.0456e-06
21 *8:7 *9:11 0.000211304
22 *8:37 *370:A 1.69978e-05
23 *8:37 *443:CLK_N 6.93171e-05
24 *8:37 *443:RESET_B 1.88014e-05
25 *8:37 *443:SET_B 0.000151353
26 *8:37 *110:10 8.96342e-05
27 *8:40 *443:RESET_B 3.87022e-06
28 *8:40 *443:SET_B 2.75449e-05
29 *8:40 *446:D 0
30 *8:40 *447:D 2.62025e-05
31 *8:40 *447:SET_B 0
32 *8:40 *9:11 0
33 *8:40 *9:13 0.000461751
34 *8:40 *158:8 4.37039e-05
35 *6:28 *216:DIODE 2.46287e-05
36 *6:28 *8:7 0.000339715
37 *7:10 *8:7 0
*RES
1 gpio_defaults[4] *8:7 22.7045 
2 *8:7 *216:DIODE 28.0994 
3 *8:7 *8:37 10.7688 
4 *8:37 *8:40 21.6963 
5 *8:40 *404:B_N 18.8017 
6 *8:40 *217:DIODE 13.7491 
7 *8:37 *399:B 16.0973 
*END

*D_NET *9 0.00836572
*CONN
*P gpio_defaults[5] I
*I *430:B_N I *D sky130_fd_sc_hd__or2b_2
*I *427:B I *D sky130_fd_sc_hd__or2_2
*I *226:DIODE I *D sky130_fd_sc_hd__diode_2
*I *227:DIODE I *D sky130_fd_sc_hd__diode_2
*CAP
1 gpio_defaults[5] 0.00104698
2 *430:B_N 0
3 *427:B 0.000247905
4 *226:DIODE 0
5 *227:DIODE 0.000114568
6 *9:29 0.000274777
7 *9:17 0.00028173
8 *9:13 0.000665577
9 *9:11 0.00151852
10 *227:DIODE *137:7 0.000114594
11 *427:B *428:A 0.000259081
12 *427:B *431:A 6.08467e-05
13 *427:B *432:B 0.000355341
14 *427:B *440:A 5.03013e-06
15 *427:B *110:34 9.75148e-06
16 *427:B *110:40 5.29314e-05
17 *9:11 *370:A 0.000523074
18 *9:11 *379:A 0.000143175
19 *9:11 *442:RESET_B 3.17474e-05
20 *9:11 *443:RESET_B 0.000298287
21 *9:11 *446:CLK_N 1.94615e-05
22 *9:11 *10:10 0
23 *9:11 *110:10 0.00052379
24 *9:13 *447:CLK_N 4.75329e-05
25 *9:13 *32:158 0.000641017
26 *9:17 *459:CLK 8.44458e-05
27 *9:17 *461:RESET_B 0.000177417
28 *9:17 *32:158 9.89388e-06
29 *9:17 *32:163 0.000117754
30 *9:29 *110:34 1.41307e-05
31 *404:B_N *9:13 5.33048e-05
32 *6:15 *9:11 0
33 *8:7 *9:11 0.000211304
34 *8:40 *9:11 0
35 *8:40 *9:13 0.000461751
*RES
1 gpio_defaults[5] *9:11 33.5744 
2 *9:11 *9:13 16.5734 
3 *9:13 *9:17 10.0693 
4 *9:17 *227:DIODE 11.0817 
5 *9:17 *226:DIODE 9.24915 
6 *9:13 *9:29 5.2234 
7 *9:29 *427:B 17.7611 
8 *9:29 *430:B_N 9.24915 
*END

*D_NET *10 0.012214
*CONN
*P gpio_defaults[6] I
*I *435:B_N I *D sky130_fd_sc_hd__or2b_2
*I *432:B I *D sky130_fd_sc_hd__or2_2
*I *229:DIODE I *D sky130_fd_sc_hd__diode_2
*I *228:DIODE I *D sky130_fd_sc_hd__diode_2
*CAP
1 gpio_defaults[6] 0.00103122
2 *435:B_N 0
3 *432:B 0.000495588
4 *229:DIODE 0.00039881
5 *228:DIODE 0.000807224
6 *10:19 0.00145662
7 *10:13 0.000775352
8 *10:11 0.000791261
9 *10:10 0.00179331
10 *228:DIODE *439:A 0.000500992
11 *228:DIODE *452:RESET_B 2.02248e-06
12 *228:DIODE *452:SET_B 3.20264e-05
13 *228:DIODE *454:SET_B 4.89158e-05
14 *228:DIODE *462:D 0.000178284
15 *228:DIODE *502:A 4.09206e-05
16 *229:DIODE *452:D 4.94979e-05
17 *432:B *427:A 0.000168313
18 *432:B *428:A 3.89073e-05
19 *432:B *432:A 1.0759e-05
20 *432:B *99:16 9.67912e-06
21 *10:10 *375:A 1.41976e-05
22 *10:10 *382:A 0.000314282
23 *10:10 *396:A 2.78496e-05
24 *10:10 *443:RESET_B 2.93532e-05
25 *10:10 *443:SET_B 9.89388e-06
26 *10:10 *446:CLK_N 4.40873e-05
27 *10:10 *11:14 0
28 *10:10 *114:8 0
29 *10:11 *404:A 0.000722848
30 *10:11 *428:A 5.03545e-06
31 *10:11 *441:A 3.66675e-05
32 *10:11 *446:D 4.47846e-05
33 *10:11 *11:14 8.96342e-05
34 *10:11 *11:19 0.000168657
35 *10:11 *138:6 7.07282e-05
36 *10:11 *141:11 0.000483855
37 *10:13 *428:A 2.10465e-05
38 *10:13 *138:6 1.80448e-05
39 *10:19 *428:A 0.000261813
40 *10:19 *431:A 9.78191e-05
41 *10:19 *441:A 8.72115e-06
42 *10:19 *452:RESET_B 1.63652e-05
43 *10:19 *452:SET_B 0.000171952
44 *10:19 *98:22 6.6476e-05
45 *10:19 *138:10 7.85668e-06
46 *223:DIODE *432:B 8.58353e-05
47 *427:B *432:B 0.000355341
48 *6:11 *10:10 0.000102747
49 *6:15 *10:10 0.0003084
50 *9:11 *10:10 0
*RES
1 gpio_defaults[6] *10:10 34.522 
2 *10:10 *10:11 25.9166 
3 *10:11 *10:13 1.00149 
4 *10:13 *10:19 8.96456 
5 *10:19 *228:DIODE 41.5084 
6 *10:19 *229:DIODE 19.464 
7 *10:13 *432:B 22.9845 
8 *10:11 *435:B_N 13.7491 
*END

*D_NET *11 0.0127153
*CONN
*P gpio_defaults[7] I
*I *437:B I *D sky130_fd_sc_hd__or2_2
*I *440:B_N I *D sky130_fd_sc_hd__or2b_2
*I *230:DIODE I *D sky130_fd_sc_hd__diode_2
*I *231:DIODE I *D sky130_fd_sc_hd__diode_2
*CAP
1 gpio_defaults[7] 0.00081809
2 *437:B 0.000210388
3 *440:B_N 0.000280433
4 *230:DIODE 0.000921112
5 *231:DIODE 0
6 *11:23 0.0019835
7 *11:19 0.00187606
8 *11:14 0.00156172
9 *230:DIODE *457:RESET_B 0.000163478
10 *230:DIODE *458:D 6.72204e-05
11 *230:DIODE *32:228 0.000114659
12 *437:B *400:A 9.1187e-05
13 *437:B *406:A 4.66492e-05
14 *437:B *407:A 0.000311366
15 *437:B *76:11 0.000215587
16 *437:B *85:45 0.000120966
17 *437:B *113:23 4.61538e-05
18 *440:B_N *472:A 0.000360364
19 *440:B_N *479:A 0.000117376
20 *11:14 pad_gpio_holdover 1.80447e-05
21 *11:14 *398:A 0.000191994
22 *11:14 *407:A 3.79361e-05
23 *11:14 *414:A 2.86799e-05
24 *11:14 *446:D 9.02471e-05
25 *11:14 *446:SET_B 0.000141913
26 *11:14 *455:CLK 3.55155e-05
27 *11:14 *12:8 0
28 *11:14 *114:8 0.000374043
29 *11:14 *141:11 4.74417e-05
30 *11:19 pad_gpio_holdover 0.000358627
31 *11:19 *32:93 0.000220952
32 *11:19 *139:9 0.000310286
33 *11:19 *141:11 3.16904e-05
34 *11:23 *472:A 0.000743469
35 *11:23 *500:A 4.19199e-05
36 *216:DIODE *230:DIODE 0.000167213
37 *225:DIODE *230:DIODE 6.31889e-06
38 *399:B *437:B 1.65872e-05
39 *399:B *11:14 0.000212952
40 *406:B *437:B 7.48546e-05
41 *10:10 *11:14 0
42 *10:11 *11:14 8.96342e-05
43 *10:11 *11:19 0.000168657
*RES
1 gpio_defaults[7] *11:14 31.5017 
2 *11:14 *11:19 28.2726 
3 *11:19 *11:23 22.718 
4 *11:23 *231:DIODE 13.7491 
5 *11:23 *230:DIODE 33.4776 
6 *11:19 *440:B_N 15.5668 
7 *11:14 *437:B 19.2802 
*END

*D_NET *12 0.00383526
*CONN
*P gpio_defaults[8] I
*I *211:DIODE I *D sky130_fd_sc_hd__diode_2
*I *210:DIODE I *D sky130_fd_sc_hd__diode_2
*I *387:B_N I *D sky130_fd_sc_hd__or2b_2
*I *384:B I *D sky130_fd_sc_hd__or2_2
*CAP
1 gpio_defaults[8] 0.000793579
2 *211:DIODE 7.44719e-05
3 *210:DIODE 0
4 *387:B_N 0
5 *384:B 0.000172551
6 *12:11 0.000301036
7 *12:8 0.000996535
8 *211:DIODE *414:A 4.36956e-05
9 *384:B *444:CLK_N 0.000114571
10 *384:B *473:A 1.19971e-05
11 *12:8 *213:DIODE 0.000115157
12 *12:8 *414:A 0.000171305
13 *12:8 *13:5 0
14 *12:8 *13:28 0.000362782
15 *12:11 *390:A 6.65668e-05
16 *2:13 *384:B 0.000325683
17 *2:13 *12:11 0.000132607
18 *3:21 *384:B 7.18043e-05
19 *3:21 *12:11 5.82482e-05
20 *4:14 *12:11 2.26719e-05
21 *11:14 *12:8 0
*RES
1 gpio_defaults[8] *12:8 20.2037 
2 *12:8 *12:11 8.82351 
3 *12:11 *384:B 20.1489 
4 *12:11 *387:B_N 13.7491 
5 *12:8 *210:DIODE 9.24915 
6 *12:8 *211:DIODE 10.5271 
*END

*D_NET *13 0.00258145
*CONN
*P gpio_defaults[9] I
*I *213:DIODE I *D sky130_fd_sc_hd__diode_2
*I *212:DIODE I *D sky130_fd_sc_hd__diode_2
*I *389:B I *D sky130_fd_sc_hd__or2_2
*I *392:B_N I *D sky130_fd_sc_hd__or2b_2
*CAP
1 gpio_defaults[9] 0.000251158
2 *213:DIODE 1.30538e-05
3 *212:DIODE 0
4 *389:B 1.2835e-05
5 *392:B_N 0.000222369
6 *13:28 6.39423e-05
7 *13:7 0.000300758
8 *13:5 0.000367601
9 *213:DIODE *414:A 0.000100065
10 *389:B *389:A 6.3657e-05
11 *389:B *395:A 6.08467e-05
12 *392:B_N *206:DIODE 4.87439e-05
13 *392:B_N *76:29 0.000118136
14 *392:B_N *145:9 0.000117566
15 *13:28 *414:A 0.000362782
16 *2:10 *13:5 0
17 *12:8 *213:DIODE 0.000115157
18 *12:8 *13:5 0
19 *12:8 *13:28 0.000362782
*RES
1 gpio_defaults[9] *13:5 6.5219 
2 *13:5 *13:7 1.41674 
3 *13:7 *392:B_N 20.0863 
4 *13:7 *389:B 14.4725 
5 *13:5 *13:28 8.55102 
6 *13:28 *212:DIODE 9.24915 
7 *13:28 *213:DIODE 10.5271 
*END

*D_NET *14 0.00394241
*CONN
*P mgmt_gpio_in O
*I *471:Z O *D sky130_fd_sc_hd__ebufn_2
*CAP
1 mgmt_gpio_in 0.00112754
2 *471:Z 0.00112754
3 mgmt_gpio_in zero 0.00128761
4 mgmt_gpio_in *247:DIODE 0
5 mgmt_gpio_in *362:A 2.44579e-05
6 mgmt_gpio_in *363:B1 0
7 mgmt_gpio_in *15:11 7.45724e-05
8 mgmt_gpio_in *17:8 0.000298582
9 mgmt_gpio_in *26:23 2.1203e-06
*RES
1 *471:Z mgmt_gpio_in 33.8418 
*END

*D_NET *15 0.0108183
*CONN
*P mgmt_gpio_oeb I
*I *361:A I *D sky130_fd_sc_hd__nand2_2
*I *199:DIODE I *D sky130_fd_sc_hd__diode_2
*I *359:A2 I *D sky130_fd_sc_hd__a31o_2
*I *201:DIODE I *D sky130_fd_sc_hd__diode_2
*CAP
1 mgmt_gpio_oeb 0.00150639
2 *361:A 2.0472e-05
3 *199:DIODE 0.000270299
4 *359:A2 0
5 *201:DIODE 0
6 *15:28 0.00127573
7 *15:19 0.00116026
8 *15:11 0.00164075
9 *199:DIODE *359:A1 9.89388e-06
10 *199:DIODE *483:A 3.5496e-05
11 *199:DIODE *131:30 8.49356e-05
12 *199:DIODE *166:8 5.99586e-05
13 *15:11 zero 0.000252764
14 *15:11 *357:A 0.000216666
15 *15:11 *361:B 1.00766e-05
16 *15:11 *471:TE_B 1.59968e-05
17 *15:11 *16:7 0.000733097
18 *15:11 *17:18 0.00051903
19 *15:11 *23:8 8.45797e-05
20 *15:11 *23:17 3.76888e-05
21 *15:11 *26:23 0
22 *15:19 *361:B 0.000109427
23 *15:19 *22:7 0
24 *15:28 *359:A1 0.00015765
25 *15:28 *420:A 3.96696e-05
26 *15:28 *423:A 0.000454157
27 *15:28 *476:A 7.25635e-05
28 *15:28 *479:A 0.000201943
29 *15:28 *483:A 0.000487482
30 *15:28 *89:21 5.33826e-05
31 *15:28 *89:38 0.000129115
32 *15:28 *89:49 0.000206534
33 *15:28 *105:8 4.87301e-05
34 *15:28 *113:50 0.000189697
35 *15:28 *131:30 0.000250377
36 mgmt_gpio_in *15:11 7.45724e-05
37 *415:B_N *199:DIODE 2.16355e-05
38 *420:B_N *15:28 6.27718e-05
39 *422:B *15:28 0.000109421
40 *2:13 *199:DIODE 4.80576e-05
41 *2:20 *199:DIODE 0.00016698
*RES
1 mgmt_gpio_oeb *15:11 32.6376 
2 *15:11 *201:DIODE 9.24915 
3 *15:11 *15:19 3.37585 
4 *15:19 *15:28 38.1613 
5 *15:28 *359:A2 13.7491 
6 *15:28 *199:DIODE 20.9456 
7 *15:19 *361:A 9.82786 
*END

*D_NET *16 0.00350824
*CONN
*P mgmt_gpio_out I
*I *362:A I *D sky130_fd_sc_hd__inv_2
*I *202:DIODE I *D sky130_fd_sc_hd__diode_2
*CAP
1 mgmt_gpio_out 0.000616678
2 *362:A 6.63571e-05
3 *202:DIODE 0.000151183
4 *16:7 0.000834218
5 *202:DIODE *367:A 2.58616e-05
6 *202:DIODE *367:B 2.8322e-05
7 *202:DIODE *17:8 0.000201511
8 *202:DIODE *17:18 5.04829e-06
9 *362:A *17:8 5.97738e-05
10 *16:7 pad_gpio_ana_en 0.000761733
11 mgmt_gpio_in *362:A 2.44579e-05
12 *15:11 *16:7 0.000733097
*RES
1 mgmt_gpio_out *16:7 7.40946 
2 *16:7 *202:DIODE 18.1732 
3 *16:7 *362:A 15.7888 
*END

*D_NET *17 0.00475316
*CONN
*P one O
*I *367:A I *D sky130_fd_sc_hd__and2_2
*I *484:HI O *D sky130_fd_sc_hd__conb_1
*CAP
1 one 2.68684e-05
2 *367:A 2.27822e-05
3 *484:HI 0.000115278
4 *17:22 2.68684e-05
5 *17:18 0.00164838
6 *17:8 0.00178644
7 *17:8 *367:B 1.67286e-05
8 mgmt_gpio_in *17:8 0.000298582