*SPEF "ieee 1481-1999"
*DESIGN "gpio_defaults_block"
*DATE "11:11:11 Fri 11 11, 1111"
*VENDOR "OpenRCX"
*PROGRAM "Parallel Extraction"
*VERSION "1.0"
*DESIGN_FLOW "NAME_SCOPE LOCAL" "PIN_CAP NONE"
*DIVIDER /
*DELIMITER :
*BUS_DELIMITER []
*T_UNIT 1 NS
*C_UNIT 1 PF
*R_UNIT 1 OHM
*L_UNIT 1 HENRY

*NAME_MAP
*3 gpio_defaults_low\[0\]
*4 gpio_defaults_high\[10\]
*5 gpio_defaults_low\[11\]
*6 gpio_defaults_low\[12\]
*7 gpio_defaults_high\[1\]
*8 gpio_defaults_low\[2\]
*9 gpio_defaults_low\[3\]
*10 gpio_defaults_low\[4\]
*11 gpio_defaults_low\[5\]
*12 gpio_defaults_low\[6\]
*13 gpio_defaults_low\[7\]
*14 gpio_defaults_low\[8\]
*15 gpio_defaults_low\[9\]
*16 gpio_defaults_high\[0\]
*17 gpio_defaults_high\[11\]
*18 gpio_defaults_high\[12\]
*19 gpio_defaults_high\[2\]
*20 gpio_defaults_high\[3\]
*21 gpio_defaults_high\[4\]
*22 gpio_defaults_high\[5\]
*23 gpio_defaults_high\[6\]
*24 gpio_defaults_high\[7\]
*25 gpio_defaults_high\[8\]
*26 gpio_defaults_high\[9\]
*27 gpio_defaults_low\[10\]
*28 gpio_defaults_low\[1\]
*29 FILLER_0_29
*30 FILLER_0_3
*31 FILLER_0_33
*32 FILLER_0_38
*33 FILLER_0_43
*34 FILLER_0_48
*35 FILLER_0_55
*36 FILLER_0_60
*37 FILLER_0_9
*38 FILLER_1_15
*39 FILLER_1_27
*40 FILLER_1_3
*41 FILLER_1_39
*42 FILLER_1_51
*43 FILLER_1_55
*44 FILLER_1_57
*45 FILLER_1_61
*46 FILLER_2_15
*47 FILLER_2_27
*48 FILLER_2_29
*49 FILLER_2_3
*50 FILLER_2_41
*51 FILLER_2_53
*52 FILLER_2_57
*53 FILLER_2_61
*54 PHY_0
*55 PHY_1
*56 PHY_2
*57 PHY_3
*58 PHY_4
*59 PHY_5
*60 TAP_10
*61 TAP_6
*62 TAP_7
*63 TAP_8
*64 TAP_9
*65 gpio_default_value\[0\]
*66 gpio_default_value\[10\]
*67 gpio_default_value\[11\]
*68 gpio_default_value\[12\]
*69 gpio_default_value\[1\]
*70 gpio_default_value\[2\]
*71 gpio_default_value\[3\]
*72 gpio_default_value\[4\]
*73 gpio_default_value\[5\]
*74 gpio_default_value\[6\]
*75 gpio_default_value\[7\]
*76 gpio_default_value\[8\]
*77 gpio_default_value\[9\]

*PORTS
gpio_defaults[0] O
gpio_defaults[10] O
gpio_defaults[11] O
gpio_defaults[12] O
gpio_defaults[1] O
gpio_defaults[2] O
gpio_defaults[3] O
gpio_defaults[4] O
gpio_defaults[5] O
gpio_defaults[6] O
gpio_defaults[7] O
gpio_defaults[8] O
gpio_defaults[9] O

*D_NET *3 0.000662868
*CONN
*P gpio_defaults[0] O
*I *65:LO O *D sky130_fd_sc_hd__conb_1
*CAP
1 gpio_defaults[0] 0.000295589
2 *65:LO 0.000295589
3 gpio_defaults[0] gpio_defaults[1] 7.16893e-05
*RES
1 *65:LO gpio_defaults[0] 21.1394 
*END

*D_NET *4 0.000169932
*CONN
*P gpio_defaults[10] O
*I *66:HI O *D sky130_fd_sc_hd__conb_1
*CAP
1 gpio_defaults[10] 8.49658e-05
2 *66:HI 8.49658e-05
3 gpio_defaults[10] gpio_defaults[11] 0
4 gpio_defaults[10] gpio_defaults[9] 0
*RES
1 *66:HI gpio_defaults[10] 15.7033 
*END

*D_NET *5 0.000230895
*CONN
*P gpio_defaults[11] O
*I *67:LO O *D sky130_fd_sc_hd__conb_1
*CAP
1 gpio_defaults[11] 0.000115448
2 *67:LO 0.000115448
3 gpio_defaults[11] gpio_defaults[12] 0
4 gpio_defaults[10] gpio_defaults[11] 0
*RES
1 *67:LO gpio_defaults[11] 16.5338 
*END

*D_NET *6 0.000822209
*CONN
*P gpio_defaults[12] O
*I *68:LO O *D sky130_fd_sc_hd__conb_1
*CAP
1 gpio_defaults[12] 0.000411104
2 *68:LO 0.000411104
3 gpio_defaults[11] gpio_defaults[12] 0
*RES
1 *68:LO gpio_defaults[12] 23.2185 
*END

*D_NET *7 0.00071336
*CONN
*P gpio_defaults[1] O
*I *69:HI O *D sky130_fd_sc_hd__conb_1
*CAP
1 gpio_defaults[1] 0.000307544
2 *69:HI 0.000307544
3 gpio_defaults[1] gpio_defaults[2] 2.65831e-05
4 gpio_defaults[0] gpio_defaults[1] 7.16893e-05
*RES
1 *69:HI gpio_defaults[1] 19.1997 
*END

*D_NET *8 0.000464143
*CONN
*P gpio_defaults[2] O
*I *70:LO O *D sky130_fd_sc_hd__conb_1
*CAP
1 gpio_defaults[2] 0.00021878
2 *70:LO 0.00021878
3 gpio_defaults[2] gpio_defaults[3] 0
4 gpio_defaults[1] gpio_defaults[2] 2.65831e-05
*RES
1 *70:LO gpio_defaults[2] 18.921 
*END

*D_NET *9 0.000363376
*CONN
*P gpio_defaults[3] O
*I *71:LO O *D sky130_fd_sc_hd__conb_1
*CAP
1 gpio_defaults[3] 0.000181688
2 *71:LO 0.000181688
3 gpio_defaults[3] gpio_defaults[4] 0
4 gpio_defaults[2] gpio_defaults[3] 0
*RES
1 *71:LO gpio_defaults[3] 17.8118 
*END

*D_NET *10 0.000236028
*CONN
*P gpio_defaults[4] O
*I *72:LO O *D sky130_fd_sc_hd__conb_1
*CAP
1 gpio_defaults[4] 0.000118014
2 *72:LO 0.000118014
3 gpio_defaults[4] gpio_defaults[5] 0
4 gpio_defaults[3] gpio_defaults[4] 0
*RES
1 *72:LO gpio_defaults[4] 16.5338 
*END

*D_NET *11 0.000230895
*CONN
*P gpio_defaults[5] O
*I *73:LO O *D sky130_fd_sc_hd__conb_1
*CAP
1 gpio_defaults[5] 0.000115448
2 *73:LO 0.000115448
3 gpio_defaults[5] gpio_defaults[6] 0
4 gpio_defaults[4] gpio_defaults[5] 0
*RES
1 *73:LO gpio_defaults[5] 16.5338 
*END

*D_NET *12 0.000230895
*CONN
*P gpio_defaults[6] O
*I *74:LO O *D sky130_fd_sc_hd__conb_1
*CAP
1 gpio_defaults[6] 0.000115448
2 *74:LO 0.000115448
3 gpio_defaults[6] gpio_defaults[7] 0
4 gpio_defaults[5] gpio_defaults[6] 0
*RES
1 *74:LO gpio_defaults[6] 16.5338 
*END

*D_NET *13 0.00022764
*CONN
*P gpio_defaults[7] O
*I *75:LO O *D sky130_fd_sc_hd__conb_1
*CAP
1 gpio_defaults[7] 0.00011382
2 *75:LO 0.00011382
3 gpio_defaults[7] gpio_defaults[8] 0
4 gpio_defaults[6] gpio_defaults[7] 0
*RES
1 *75:LO gpio_defaults[7] 16.5338 
*END

*D_NET *14 0.000224385
*CONN
*P gpio_defaults[8] O
*I *76:LO O *D sky130_fd_sc_hd__conb_1
*CAP
1 gpio_defaults[8] 0.000112192
2 *76:LO 0.000112192
3 gpio_defaults[8] gpio_defaults[9] 0
4 gpio_defaults[7] gpio_defaults[8] 0
*RES
1 *76:LO gpio_defaults[8] 16.5338 
*END

*D_NET *15 0.00022764
*CONN
*P gpio_defaults[9] O
*I *77:LO O *D sky130_fd_sc_hd__conb_1
*CAP
1 gpio_defaults[9] 0.00011382
2 *77:LO 0.00011382
3 gpio_defaults[10] gpio_defaults[9] 0
4 gpio_defaults[8] gpio_defaults[9] 0
*RES
1 *77:LO gpio_defaults[9] 16.5338 
*END
