*SPEF "ieee 1481-1999"
*DESIGN "gpio_control_block"
*DATE "11:11:11 Fri 11 11, 1111"
*VENDOR "OpenRCX"
*PROGRAM "Parallel Extraction"
*VERSION "1.0"
*DESIGN_FLOW "NAME_SCOPE LOCAL" "PIN_CAP NONE"
*DIVIDER /
*DELIMITER :
*BUS_DELIMITER []
*T_UNIT 1 NS
*C_UNIT 1 PF
*R_UNIT 1 OHM
*L_UNIT 1 HENRY

*NAME_MAP
*1 gpio_defaults[0]
*2 gpio_defaults[10]
*3 gpio_defaults[11]
*4 gpio_defaults[12]
*5 gpio_defaults[1]
*6 gpio_defaults[2]
*7 gpio_defaults[3]
*8 gpio_defaults[4]
*9 gpio_defaults[5]
*10 gpio_defaults[6]
*11 gpio_defaults[7]
*12 gpio_defaults[8]
*13 gpio_defaults[9]
*14 mgmt_gpio_in
*15 mgmt_gpio_oeb
*16 mgmt_gpio_out
*17 one
*18 pad_gpio_ana_en
*19 pad_gpio_ana_pol
*20 pad_gpio_ana_sel
*21 pad_gpio_dm[0]
*22 pad_gpio_dm[1]
*23 pad_gpio_dm[2]
*24 pad_gpio_holdover
*25 pad_gpio_ib_mode_sel
*26 pad_gpio_in
*27 pad_gpio_inenb
*28 pad_gpio_out
*29 pad_gpio_outenb
*30 pad_gpio_slow_sel
*31 pad_gpio_vtrip_sel
*32 resetn
*33 resetn_out
*34 serial_clock
*35 serial_clock_out
*36 serial_data_in
*37 serial_data_out
*38 serial_load
*39 serial_load_out
*40 user_gpio_in
*41 user_gpio_oeb
*42 user_gpio_out
*47 zero
*48 _000_
*49 _001_
*50 _002_
*51 _003_
*52 _004_
*53 _005_
*54 _006_
*55 _007_
*56 _008_
*57 _009_
*58 _010_
*59 _011_
*60 _012_
*61 _013_
*62 _014_
*63 _015_
*64 _016_
*65 _017_
*66 _018_
*67 _019_
*68 _020_
*69 _021_
*70 _022_
*71 _023_
*72 _024_
*73 _025_
*74 _026_
*75 _027_
*76 _042_
*77 _043_
*78 _044_
*79 _045_
*80 _046_
*81 _047_
*82 _048_
*83 _049_
*84 _050_
*85 _051_
*86 _052_
*87 _053_
*88 _054_
*89 _055_
*90 _056_
*91 _057_
*92 clknet_0_serial_clock
*93 clknet_0_serial_load
*94 clknet_1_0__leaf_serial_clock
*95 clknet_1_0__leaf_serial_load
*96 clknet_1_1__leaf_serial_clock
*97 clknet_1_1__leaf_serial_load
*98 gpio_logic1
*99 gpio_outenb
*100 mgmt_ena
*101 net1
*102 net10
*103 net11
*104 net12
*105 net13
*106 net14
*107 net15
*108 net16
*109 net17
*110 net18
*111 net19
*112 net2
*113 net20
*114 net21
*115 net22
*116 net23
*117 net24
*118 net25
*119 net26
*120 net27
*121 net3
*122 net4
*123 net5
*124 net6
*125 net7
*126 net8
*127 net9
*128 shift_register\[0\]
*129 shift_register\[10\]
*130 shift_register\[11\]
*131 shift_register\[12\]
*132 shift_register\[1\]
*133 shift_register\[2\]
*134 shift_register\[3\]
*135 shift_register\[4\]
*136 shift_register\[5\]
*137 shift_register\[6\]
*138 shift_register\[7\]
*139 shift_register\[8\]
*140 shift_register\[9\]
*141 ANTENNA__058__A
*142 ANTENNA__061__A_N
*143 ANTENNA__062__B
*144 ANTENNA__063__A2
*145 ANTENNA__064__A_N
*146 ANTENNA__064__C
*147 ANTENNA__065__A0
*148 ANTENNA__066__A0
*149 ANTENNA__067__A
*150 ANTENNA__067__B
*151 ANTENNA__068__A_N
*152 ANTENNA__068__B
*153 ANTENNA__069__A
*154 ANTENNA__069__B
*155 ANTENNA__070__A_N
*156 ANTENNA__070__B
*157 ANTENNA__071__A
*158 ANTENNA__071__B
*159 ANTENNA__072__A_N
*160 ANTENNA__072__B
*161 ANTENNA__073__A
*162 ANTENNA__073__B
*163 ANTENNA__074__A_N
*164 ANTENNA__074__B
*165 ANTENNA__075__A
*166 ANTENNA__075__B
*167 ANTENNA__076__A_N
*168 ANTENNA__076__B
*169 ANTENNA__077__A
*170 ANTENNA__077__B
*171 ANTENNA__078__A_N
*172 ANTENNA__078__B
*173 ANTENNA__079__A
*174 ANTENNA__079__B
*175 ANTENNA__080__A_N
*176 ANTENNA__080__B
*177 ANTENNA__081__A
*178 ANTENNA__081__B
*179 ANTENNA__082__A_N
*180 ANTENNA__082__B
*181 ANTENNA__083__A
*182 ANTENNA__083__B
*183 ANTENNA__084__A_N
*184 ANTENNA__084__B
*185 ANTENNA__085__A
*186 ANTENNA__085__B
*187 ANTENNA__086__A_N
*188 ANTENNA__086__B
*189 ANTENNA__087__A
*190 ANTENNA__087__B
*191 ANTENNA__088__A_N
*192 ANTENNA__088__B
*193 ANTENNA__089__A
*194 ANTENNA__089__B
*195 ANTENNA__090__A_N
*196 ANTENNA__090__B
*197 ANTENNA__091__A
*198 ANTENNA__091__B
*199 ANTENNA__092__A_N
*200 ANTENNA__092__B
*201 ANTENNA__118__D
*202 ANTENNA__118__RESET_B
*203 ANTENNA__119__RESET_B
*204 ANTENNA__120__RESET_B
*205 ANTENNA__121__RESET_B
*206 ANTENNA__122__RESET_B
*207 ANTENNA__123__RESET_B
*208 ANTENNA__124__RESET_B
*209 ANTENNA__125__RESET_B
*210 ANTENNA__126__RESET_B
*211 ANTENNA__127__RESET_B
*212 ANTENNA__128__RESET_B
*213 ANTENNA__129__RESET_B
*214 ANTENNA__130__RESET_B
*215 ANTENNA__131__RESET_B
*216 ANTENNA__132__A
*217 ANTENNA__135__A
*218 ANTENNA_clkbuf_0_serial_clock_A
*219 ANTENNA_clkbuf_0_serial_load_A
*220 FILLER_0_50
*221 FILLER_0_52
*222 FILLER_0_64
*223 FILLER_0_76
*224 FILLER_0_80
*225 FILLER_10_27
*226 FILLER_10_3
*227 FILLER_10_44
*228 FILLER_10_76
*229 FILLER_11_15
*230 FILLER_11_3
*231 FILLER_11_48
*232 FILLER_12_15
*233 FILLER_12_3
*234 FILLER_13_3
*235 FILLER_13_35
*236 FILLER_14_3
*237 FILLER_14_38
*238 FILLER_14_83
*239 FILLER_14_85
*240 FILLER_15_3
*241 FILLER_15_65
*242 FILLER_16_3
*243 FILLER_17_11
*244 FILLER_17_3
*245 FILLER_17_72
*246 FILLER_18_15
*247 FILLER_18_24
*248 FILLER_18_3
*249 FILLER_18_44
*250 FILLER_18_48
*251 FILLER_18_52
*252 FILLER_18_61
*253 FILLER_18_66
*254 FILLER_18_71
*255 FILLER_18_79
*256 FILLER_18_85
*257 FILLER_1_56
*258 FILLER_1_68
*259 FILLER_1_71
*260 FILLER_1_75
*261 FILLER_1_78
*262 FILLER_1_82
*263 FILLER_2_40
*264 FILLER_2_44
*265 FILLER_2_70
*266 FILLER_2_83
*267 FILLER_3_39
*268 FILLER_3_93
*269 FILLER_6_50
*270 FILLER_6_60
*271 FILLER_7_76
*272 FILLER_7_93
*273 FILLER_8_29
*274 FILLER_8_3
*275 FILLER_9_3
*276 PHY_0
*277 PHY_1
*278 PHY_10
*279 PHY_11
*280 PHY_12
*281 PHY_13
*282 PHY_14
*283 PHY_15
*284 PHY_16
*285 PHY_17
*286 PHY_18
*287 PHY_19
*288 PHY_2
*289 PHY_20
*290 PHY_21
*291 PHY_22
*292 PHY_23
*293 PHY_24
*294 PHY_25
*295 PHY_26
*296 PHY_27
*297 PHY_28
*298 PHY_29
*299 PHY_3
*300 PHY_30
*301 PHY_31
*302 PHY_32
*303 PHY_33
*304 PHY_34
*305 PHY_35
*306 PHY_36
*307 PHY_37
*308 PHY_4
*309 PHY_5
*310 PHY_6
*311 PHY_7
*312 PHY_8
*313 PHY_9
*314 TAP_38
*315 TAP_39
*316 TAP_40
*317 TAP_41
*318 TAP_42
*319 TAP_43
*320 TAP_44
*321 TAP_45
*322 TAP_46
*323 TAP_47
*324 TAP_48
*325 TAP_49
*326 TAP_50
*327 TAP_51
*328 TAP_52
*329 TAP_53
*330 TAP_54
*331 TAP_55
*332 TAP_56
*333 TAP_57
*334 TAP_58
*335 TAP_59
*336 TAP_60
*337 TAP_61
*338 TAP_62
*339 TAP_63
*340 TAP_64
*341 TAP_65
*342 _058_
*343 _059__1
*344 _060__14
*345 _061_
*346 _062_
*347 _063_
*348 _064_
*349 _065_
*350 _066_
*351 _067_
*352 _068_
*353 _069_
*354 _070_
*355 _071_
*356 _072_
*357 _073_
*358 _074_
*359 _075_
*360 _076_
*361 _077_
*362 _078_
*363 _079_
*364 _080_
*365 _081_
*366 _082_
*367 _083_
*368 _084_
*369 _085_
*370 _086_
*371 _087_
*372 _088_
*373 _089_
*374 _090_
*375 _091_
*376 _092_
*377 _093__2
*378 _094__3
*379 _095__4
*380 _096__5
*381 _097__6
*382 _098__7
*383 _099__8
*384 _100__9
*385 _101__10
*386 _102__11
*387 _103__12
*388 _104__13
*389 _105_
*390 _106_
*391 _107_
*392 _108_
*393 _109_
*394 _110_
*395 _111_
*396 _112_
*397 _113_
*398 _114_
*399 _115_
*400 _116_
*401 _117_
*402 _118_
*403 _119_
*404 _120_
*405 _121_
*406 _122_
*407 _123_
*408 _124_
*409 _125_
*410 _126_
*411 _127_
*412 _128_
*413 _129_
*414 _130_
*415 _131_
*416 _132_
*417 _133_
*418 _134_
*419 _135_
*420 clkbuf_0_serial_clock
*421 clkbuf_0_serial_load
*422 clkbuf_1_0__f_serial_clock
*423 clkbuf_1_0__f_serial_load
*424 clkbuf_1_1__f_serial_clock
*425 clkbuf_1_1__f_serial_load
*426 const_source
*427 gpio_in_buf
*428 gpio_logic_high
*429 hold1
*430 hold10
*431 hold11
*432 hold12
*433 hold13
*434 hold2
*435 hold3
*436 hold4
*437 hold5
*438 hold6
*439 hold7
*440 hold8
*441 hold9

*PORTS
gpio_defaults[0] I
gpio_defaults[10] I
gpio_defaults[11] I
gpio_defaults[12] I
gpio_defaults[1] I
gpio_defaults[2] I
gpio_defaults[3] I
gpio_defaults[4] I
gpio_defaults[5] I
gpio_defaults[6] I
gpio_defaults[7] I
gpio_defaults[8] I
gpio_defaults[9] I
mgmt_gpio_in O
mgmt_gpio_oeb I
mgmt_gpio_out I
one O
pad_gpio_ana_en O
pad_gpio_ana_pol O
pad_gpio_ana_sel O
pad_gpio_dm[0] O
pad_gpio_dm[1] O
pad_gpio_dm[2] O
pad_gpio_holdover O
pad_gpio_ib_mode_sel O
pad_gpio_in I
pad_gpio_inenb O
pad_gpio_out O
pad_gpio_outenb O
pad_gpio_slow_sel O
pad_gpio_vtrip_sel O
resetn I
resetn_out O
serial_clock I
serial_clock_out O
serial_data_in I
serial_data_out O
serial_load I
serial_load_out O
user_gpio_in O
user_gpio_oeb I
user_gpio_out I
zero O

*D_NET *1 0.00327283
*CONN
*P gpio_defaults[0] I
*I *150:DIODE I *D sky130_fd_sc_hd__diode_2
*I *351:B I *D sky130_fd_sc_hd__or2_2
*I *352:B I *D sky130_fd_sc_hd__nand2b_2
*I *152:DIODE I *D sky130_fd_sc_hd__diode_2
*CAP
1 gpio_defaults[0] 0.00134133
2 *150:DIODE 2.26741e-05
3 *351:B 6.50276e-05
4 *352:B 0
5 *152:DIODE 0
6 *1:21 0.000190695
7 *1:16 0.000230054
8 *1:10 0.00142305
9 *150:DIODE *343:A 0
10 *150:DIODE *4:8 0
11 *351:B *32:488 0
12 *351:B *97:43 0
13 *1:10 *174:DIODE 0
14 *1:10 *377:A 0
15 *1:10 *2:10 0
16 *1:10 *5:10 0
17 *1:10 *5:21 0
18 *1:10 *5:26 0
19 *1:10 *32:504 0
20 *1:16 *343:A 0
21 *1:16 *2:10 0
22 *1:16 *4:8 0
*RES
1 gpio_defaults[0] *1:10 32.9286 
2 *1:10 *152:DIODE 9.3 
3 *1:10 *1:16 1.76786 
4 *1:16 *1:21 11.8571 
5 *1:21 *352:B 9.3 
6 *1:21 *351:B 10.6571 
7 *1:16 *150:DIODE 9.83571 
*END

*D_NET *2 0.00544015
*CONN
*P gpio_defaults[10] I
*I *178:DIODE I *D sky130_fd_sc_hd__diode_2
*I *365:B I *D sky130_fd_sc_hd__or2_2
*I *366:B I *D sky130_fd_sc_hd__nand2b_2
*I *180:DIODE I *D sky130_fd_sc_hd__diode_2
*CAP
1 gpio_defaults[10] 0.000386661
2 *178:DIODE 2.26741e-05
3 *365:B 6.50276e-05
4 *366:B 0
5 *180:DIODE 0
6 *2:25 0.000150602
7 *2:20 0.000229319
8 *2:14 0.000343534
9 *2:13 0.00203907
10 *2:10 0.00220327
11 *365:B *32:82 0
12 *2:10 *343:A 0
13 *2:10 *389:CLK_N 0
14 *2:10 *3:16 0
15 *2:10 *13:16 0
16 *2:10 *32:504 0
17 *2:13 *401:RESET_B 0
18 *2:13 *423:A 0
19 *2:13 *11:13 0
20 *2:14 pad_gpio_ana_en 0
21 *1:10 *2:10 0
22 *1:16 *2:10 0
*RES
1 gpio_defaults[10] *2:10 17.4821 
2 *2:10 *2:13 45.6071 
3 *2:13 *2:14 4.64286 
4 *2:14 *180:DIODE 9.3 
5 *2:14 *2:20 2.58929 
6 *2:20 *2:25 10.9464 
7 *2:25 *366:B 9.3 
8 *2:25 *365:B 10.6571 
9 *2:20 *178:DIODE 9.83571 
*END

*D_NET *3 0.0054507
*CONN
*P gpio_defaults[11] I
*I *367:B I *D sky130_fd_sc_hd__or2_2
*I *182:DIODE I *D sky130_fd_sc_hd__diode_2
*I *184:DIODE I *D sky130_fd_sc_hd__diode_2
*I *368:B I *D sky130_fd_sc_hd__nand2b_2
*CAP
1 gpio_defaults[11] 0.00133306
2 *367:B 0.00012706
3 *182:DIODE 2.26741e-05
4 *184:DIODE 0
5 *368:B 8.04288e-05
6 *3:26 0.000184815
7 *3:25 0.000572983
8 *3:17 0.0011848
9 *3:16 0.00194488
10 *182:DIODE *32:74 0
11 *367:B *32:66 0
12 *367:B *32:366 0
13 *368:B pad_gpio_ana_pol 0
14 *3:16 *429:A 0
15 *3:16 *4:8 0
16 *3:16 *13:16 0
17 *3:16 *97:43 0
18 *3:17 *158:DIODE 0
19 *3:17 *23:8 0
20 *3:17 *32:51 0
21 *3:17 *99:12 0
22 *3:25 *396:RESET_B 0
23 *3:25 *396:SET_B 0
24 *3:25 *23:8 0
25 *3:26 pad_gpio_ana_pol 0
26 *3:26 *32:76 0
27 *2:10 *3:16 0
*RES
1 gpio_defaults[11] *3:16 47.2857 
2 *3:16 *3:17 13.7857 
3 *3:17 *3:25 14.6964 
4 *3:25 *3:26 2.17857 
5 *3:26 *368:B 10.9786 
6 *3:26 *184:DIODE 9.3 
7 *3:25 *182:DIODE 9.83571 
8 *3:17 *367:B 16.3893 
*END

*D_NET *4 0.00266122
*CONN
*P gpio_defaults[12] I
*I *186:DIODE I *D sky130_fd_sc_hd__diode_2
*I *369:B I *D sky130_fd_sc_hd__or2_2
*I *370:B I *D sky130_fd_sc_hd__nand2b_2
*I *188:DIODE I *D sky130_fd_sc_hd__diode_2
*CAP
1 gpio_defaults[12] 0.000540107
2 *186:DIODE 0.000245137
3 *369:B 0.000263533
4 *370:B 0
5 *188:DIODE 0
6 *4:19 0.000522694
7 *4:14 0.000526972
8 *4:8 0.000562781
9 *186:DIODE *216:DIODE 0
10 *186:DIODE *32:710 0
11 *186:DIODE *32:716 0
12 *369:B *32:457 0
13 *369:B *100:8 0
14 *4:8 *343:A 0
15 *4:8 *344:A 0
16 *4:8 *32:710 0
17 *4:14 *32:710 0
18 *4:19 *415:D 0
19 *4:19 *38:8 0
20 *150:DIODE *4:8 0
21 *1:16 *4:8 0
22 *3:16 *4:8 0
*RES
1 gpio_defaults[12] *4:8 16.0714 
2 *4:8 *188:DIODE 9.3 
3 *4:8 *4:14 0.535714 
4 *4:14 *4:19 14.8929 
5 *4:19 *370:B 9.3 
6 *4:19 *369:B 14.8 
7 *4:14 *186:DIODE 14.3536 
*END

*D_NET *5 0.00250554
*CONN
*P gpio_defaults[1] I
*I *174:DIODE I *D sky130_fd_sc_hd__diode_2
*I *363:B I *D sky130_fd_sc_hd__or2_2
*I *364:B I *D sky130_fd_sc_hd__nand2b_2
*I *176:DIODE I *D sky130_fd_sc_hd__diode_2
*CAP
1 gpio_defaults[1] 0.000713375
2 *174:DIODE 4.23535e-05
3 *363:B 0.000183633
4 *364:B 0
5 *176:DIODE 0
6 *5:26 0.000372726
7 *5:21 0.00031341
8 *5:10 0.000880045
9 *174:DIODE *32:504 0
10 *363:B *97:33 0
11 *5:10 *6:9 0
12 *5:10 *7:10 0
13 *5:26 *377:A 0
14 *5:26 *32:504 0
15 *5:26 *32:510 0
16 *1:10 *174:DIODE 0
17 *1:10 *5:10 0
18 *1:10 *5:21 0
19 *1:10 *5:26 0
*RES
1 gpio_defaults[1] *5:10 19.8929 
2 *5:10 *176:DIODE 9.3 
3 *5:10 *5:21 12.625 
4 *5:21 *364:B 9.3 
5 *5:21 *5:26 3 
6 *5:26 *363:B 22.3179 
7 *5:26 *174:DIODE 10.2464 
*END

*D_NET *6 0.00367846
*CONN
*P gpio_defaults[2] I
*I *156:DIODE I *D sky130_fd_sc_hd__diode_2
*I *354:B I *D sky130_fd_sc_hd__nand2b_2
*I *353:B I *D sky130_fd_sc_hd__or2_2
*I *154:DIODE I *D sky130_fd_sc_hd__diode_2
*CAP
1 gpio_defaults[2] 0.000560775
2 *156:DIODE 0.000176359
3 *354:B 4.53482e-05
4 *353:B 0.000171373
5 *154:DIODE 0.000177065
6 *6:36 0.000658521
7 *6:21 0.00087968
8 *6:9 0.00100933
9 *154:DIODE *32:614 0
10 *353:B *8:9 0
11 *353:B *9:5 0
12 *6:9 *403:RESET_B 0
13 *6:9 *7:10 0
14 *6:36 pad_gpio_holdover 0
15 *6:36 *97:21 0
16 *5:10 *6:9 0
*RES
1 gpio_defaults[2] *6:9 12.8661 
2 *6:9 *154:DIODE 17.6661 
3 *6:9 *6:21 4.39387 
4 *6:21 *353:B 21.0582 
5 *6:21 *6:36 7.01185 
6 *6:36 *354:B 14.7464 
7 *6:36 *156:DIODE 17.8714 
*END

*D_NET *7 0.00299846
*CONN
*P gpio_defaults[3] I
*I *359:B I *D sky130_fd_sc_hd__or2_2
*I *360:B I *D sky130_fd_sc_hd__nand2b_2
*I *168:DIODE I *D sky130_fd_sc_hd__diode_2
*I *166:DIODE I *D sky130_fd_sc_hd__diode_2
*CAP
1 gpio_defaults[3] 0.000736745
2 *359:B 4.83429e-05
3 *360:B 0.000219087
4 *168:DIODE 0.000263177
5 *166:DIODE 0
6 *7:31 0.000450968
7 *7:16 0.000495058
8 *7:10 0.000785088
9 *359:B *390:RESET_B 0
10 *359:B *32:599 0
11 *359:B *32:603 0
12 *7:10 *403:RESET_B 0
13 *7:10 *8:9 0
14 *7:10 *32:614 0
15 *7:16 *32:609 0
16 *7:31 *390:RESET_B 0
17 *7:31 *32:603 0
18 *5:10 *7:10 0
19 *6:9 *7:10 0
*RES
1 gpio_defaults[3] *7:10 20.9821 
2 *7:10 *166:DIODE 9.3 
3 *7:10 *7:16 0.946429 
4 *7:16 *168:DIODE 24.2286 
5 *7:16 *7:31 8.53571 
6 *7:31 *360:B 18.7821 
7 *7:31 *359:B 14.7464 
*END

*D_NET *8 0.00416406
*CONN
*P gpio_defaults[4] I
*I *172:DIODE I *D sky130_fd_sc_hd__diode_2
*I *362:B I *D sky130_fd_sc_hd__nand2b_2
*I *361:B I *D sky130_fd_sc_hd__or2_2
*I *170:DIODE I *D sky130_fd_sc_hd__diode_2
*CAP
1 gpio_defaults[4] 0.0010043
2 *172:DIODE 0.000124066
3 *362:B 0.000121071
4 *361:B 0.000258304
5 *170:DIODE 0.000255465
6 *8:23 0.000545794
7 *8:11 0.000574293
8 *8:9 0.00128077
9 *170:DIODE *381:A 0
10 *170:DIODE *32:266 0
11 *172:DIODE *160:DIODE 0
12 *172:DIODE *393:CLK_N 0
13 *361:B *410:CLK 0
14 *362:B *394:SET_B 0
15 *362:B *441:A 0
16 *8:9 *9:5 0
17 *8:23 *406:D 0
18 *8:23 *441:A 0
19 *8:23 *32:250 0
20 *8:23 *116:8 0
21 *353:B *8:9 0
22 *7:10 *8:9 0
*RES
1 gpio_defaults[4] *8:9 22.9464 
2 *8:9 *8:11 3.46429 
3 *8:11 *170:DIODE 19.2643 
4 *8:11 *8:23 7.91071 
5 *8:23 *361:B 24.1214 
6 *8:23 *362:B 11.8893 
7 *8:9 *172:DIODE 16.3893 
*END

*D_NET *9 0.00532497
*CONN
*P gpio_defaults[5] I
*I *192:DIODE I *D sky130_fd_sc_hd__diode_2
*I *371:B I *D sky130_fd_sc_hd__or2_2
*I *190:DIODE I *D sky130_fd_sc_hd__diode_2
*I *372:B I *D sky130_fd_sc_hd__nand2b_2
*CAP
1 gpio_defaults[5] 0.00162048
2 *192:DIODE 2.56688e-05
3 *371:B 0
4 *190:DIODE 0.000437561
5 *372:B 0
6 *9:20 0.000479915
7 *9:14 0.000578772
8 *9:5 0.00218257
9 *190:DIODE *95:8 0
10 *9:5 *10:14 0
11 *9:5 *111:10 0
12 *9:14 *189:DIODE 0
13 *9:14 *427:TE 0
14 *9:20 *399:SET_B 0
15 *9:20 *32:110 0
16 *353:B *9:5 0
17 *8:9 *9:5 0
*RES
1 gpio_defaults[5] *9:5 36.6429 
2 *9:5 *9:14 16.4821 
3 *9:14 *372:B 9.3 
4 *9:14 *9:20 0.946429 
5 *9:20 *190:DIODE 27.8357 
6 *9:20 *371:B 9.3 
7 *9:5 *192:DIODE 14.3357 
*END

*D_NET *10 0.00560113
*CONN
*P gpio_defaults[6] I
*I *374:B I *D sky130_fd_sc_hd__nand2b_2
*I *373:B I *D sky130_fd_sc_hd__or2_2
*I *194:DIODE I *D sky130_fd_sc_hd__diode_2
*I *196:DIODE I *D sky130_fd_sc_hd__diode_2
*CAP
1 gpio_defaults[6] 0.000956917
2 *374:B 0.000146098
3 *373:B 0
4 *194:DIODE 0.000242998
5 *196:DIODE 0.000272185
6 *10:38 0.000308025
7 *10:17 0.000571341
8 *10:15 0.00118237
9 *10:14 0.0019212
10 *194:DIODE *432:A 0
11 *194:DIODE *119:7 0
12 *196:DIODE *32:108 0
13 *374:B *373:A 0
14 *374:B *32:175 0
15 *10:14 *395:CLK_N 0
16 *10:14 *436:A 0
17 *10:14 *11:12 0
18 *10:14 *111:10 0
19 *10:38 *422:A 0
20 *9:5 *10:14 0
*RES
1 gpio_defaults[6] *10:14 30.4821 
2 *10:14 *10:15 21.9821 
3 *10:15 *10:17 1.33929 
4 *10:17 *196:DIODE 19.6571 
5 *10:17 *194:DIODE 18.8714 
6 *10:15 *10:38 7.91071 
7 *10:38 *373:B 9.3 
8 *10:38 *374:B 12.3179 
*END

*D_NET *11 0.00574676
*CONN
*P gpio_defaults[7] I
*I *375:B I *D sky130_fd_sc_hd__or2_2
*I *198:DIODE I *D sky130_fd_sc_hd__diode_2
*I *200:DIODE I *D sky130_fd_sc_hd__diode_2
*I *376:B I *D sky130_fd_sc_hd__nand2b_2
*CAP
1 gpio_defaults[7] 0.00112203
2 *375:B 2.56688e-05
3 *198:DIODE 2.56688e-05
4 *200:DIODE 7.23016e-05
5 *376:B 4.62038e-05
6 *11:24 0.000337846
7 *11:19 0.000453184
8 *11:13 0.00138784
9 *11:12 0.00227602
10 *198:DIODE *32:88 0
11 *376:B *383:A 0
12 *376:B *32:102 0
13 *11:12 pad_gpio_holdover 0
14 *11:12 *390:RESET_B 0
15 *11:12 *395:RESET_B 0
16 *11:12 *12:16 0
17 *11:12 *24:13 0
18 *11:12 *99:12 0
19 *11:13 *397:D 0
20 *11:13 *413:D 0
21 *11:13 *414:D 0
22 *11:19 *396:CLK_N 0
23 *11:19 *32:162 0
24 *11:24 *383:A 0
25 *11:24 *32:88 0
26 *11:24 *32:94 0
27 *11:24 *32:102 0
28 *2:13 *11:13 0
29 *10:14 *11:12 0
*RES
1 gpio_defaults[7] *11:12 33.6071 
2 *11:12 *11:13 26.2321 
3 *11:13 *11:19 4.73214 
4 *11:19 *11:24 9.25 
5 *11:24 *376:B 10.2643 
6 *11:24 *200:DIODE 19.9429 
7 *11:19 *198:DIODE 14.3357 
8 *11:13 *375:B 14.3357 
*END

*D_NET *12 0.00560293
*CONN
*P gpio_defaults[8] I
*I *355:B I *D sky130_fd_sc_hd__or2_2
*I *158:DIODE I *D sky130_fd_sc_hd__diode_2
*I *356:B I *D sky130_fd_sc_hd__nand2b_2
*I *160:DIODE I *D sky130_fd_sc_hd__diode_2
*CAP
1 gpio_defaults[8] 0.00110356
2 *355:B 0
3 *158:DIODE 0.000104865
4 *356:B 0
5 *160:DIODE 0.000546317
6 *12:42 0.000932763
7 *12:28 0.00104672
8 *12:16 0.0018687
9 *158:DIODE *23:8 0
10 *160:DIODE *393:CLK_N 0
11 *160:DIODE *393:RESET_B 0
12 *12:16 *13:16 0
13 *12:28 *356:A_N 0
14 *12:28 *27:17 0
15 *12:42 pad_gpio_slow_sel 0
16 *12:42 *355:A 0
17 *12:42 *392:SET_B 0
18 *12:42 *27:17 0
19 *12:42 *32:36 0
20 *12:42 *99:12 0
21 *12:42 *108:7 0
22 *172:DIODE *160:DIODE 0
23 *3:17 *158:DIODE 0
24 *11:12 *12:16 0
*RES
1 gpio_defaults[8] *12:16 29.5536 
2 *12:16 *160:DIODE 20.8357 
3 *12:16 *12:28 4.66071 
4 *12:28 *356:B 9.3 
5 *12:28 *12:42 26.875 
6 *12:42 *158:DIODE 20.7821 
7 *12:42 *355:B 9.3 
*END

*D_NET *13 0.00418307
*CONN
*P gpio_defaults[9] I
*I *162:DIODE I *D sky130_fd_sc_hd__diode_2
*I *164:DIODE I *D sky130_fd_sc_hd__diode_2
*I *358:B I *D sky130_fd_sc_hd__nand2b_2
*I *357:B I *D sky130_fd_sc_hd__or2_2
*CAP
1 gpio_defaults[9] 0.00163103
2 *162:DIODE 5.61188e-05
3 *164:DIODE 2.56688e-05
4 *358:B 0.000237116
5 *357:B 0
6 *13:25 0.000359037
7 *13:24 0.000197718
8 *13:16 0.00167638
9 *358:B *392:SET_B 0
10 *358:B *32:25 0
11 *358:B *42:10 0
12 *13:16 *414:RESET_B 0
13 *13:16 *424:A 0
14 *13:16 *429:A 0
15 *13:16 *32:424 0
16 *13:16 *32:504 0
17 *13:16 *96:7 0
18 *2:10 *13:16 0
19 *3:16 *13:16 0
20 *12:16 *13:16 0
*RES
1 gpio_defaults[9] *13:16 40.1071 
2 *13:16 *357:B 9.3 
3 *13:16 *13:24 5.44643 
4 *13:24 *13:25 2.25 
5 *13:25 *358:B 19.0321 
6 *13:25 *164:DIODE 14.3357 
7 *13:24 *162:DIODE 15.1393 
*END

*D_NET *14 0.00385615
*CONN
*P mgmt_gpio_in O
*I *419:Z O *D sky130_fd_sc_hd__ebufn_2
*CAP
1 mgmt_gpio_in 0.00192807
2 *419:Z 0.00192807
3 mgmt_gpio_in one 0
4 mgmt_gpio_in zero 0
5 mgmt_gpio_in *148:DIODE 0
6 mgmt_gpio_in *347:A2 0
7 mgmt_gpio_in *349:A0 0
8 mgmt_gpio_in *15:17 0
9 mgmt_gpio_in *15:29 0
10 mgmt_gpio_in *26:24 0
*RES
1 *419:Z mgmt_gpio_in 42.024 
*END

*D_NET *15 0.00444496
*CONN
*P mgmt_gpio_oeb I
*I *144:DIODE I *D sky130_fd_sc_hd__diode_2
*I *347:A2 I *D sky130_fd_sc_hd__a31o_2
*I *348:C I *D sky130_fd_sc_hd__and3b_2
*I *146:DIODE I *D sky130_fd_sc_hd__diode_2
*CAP
1 mgmt_gpio_oeb 0.000971554
2 *144:DIODE 0
3 *347:A2 0.000627254
4 *348:C 0.000114226
5 *146:DIODE 6.45626e-05
6 *15:29 0.000942499
7 *15:17 0.000559111
8 *15:7 0.00116576
9 *347:A2 *148:DIODE 0
10 *347:A2 *163:DIODE 0
11 *347:A2 *347:A3 0
12 *347:A2 *350:A1 0
13 *347:A2 *26:8 0
14 *347:A2 *26:13 0
15 *347:A2 *26:24 0
16 *347:A2 *29:7 0
17 *347:A2 *32:35 0
18 *348:C *217:DIODE 0
19 *15:7 one 0
20 *15:7 *16:7 0
21 *15:29 *21:12 0
22 mgmt_gpio_in *347:A2 0
23 mgmt_gpio_in *15:17 0
24 mgmt_gpio_in *15:29 0
*RES
1 mgmt_gpio_oeb *15:7 6.92873 
2 *15:7 *146:DIODE 15.2196 
3 *15:7 *15:17 3.00893 
4 *15:17 *348:C 16.1839 
5 *15:17 *15:29 11.6429 
6 *15:29 *347:A2 32.3357 
7 *15:29 *144:DIODE 9.3 
*END

*D_NET *16 0.00258812
*CONN
*P mgmt_gpio_out I
*I *349:A0 I *D sky130_fd_sc_hd__mux2_1
*I *147:DIODE I *D sky130_fd_sc_hd__diode_2
*CAP
1 mgmt_gpio_out 0.00103114
2 *349:A0 0.000250766
3 *147:DIODE 1.21519e-05
4 *16:7 0.00129406
5 *349:A0 *141:DIODE 0
6 *349:A0 *349:S 0
7 *349:A0 *350:A1 0
8 *349:A0 *26:24 0
9 *16:7 pad_gpio_ana_en 0
10 mgmt_gpio_in *349:A0 0
11 *15:7 *16:7 0
*RES
1 mgmt_gpio_out *16:7 7.14493 
2 *16:7 *147:DIODE 14.0768 
3 *16:7 *349:A0 19.3804 
*END

*D_NET *17 0.00238022
*CONN
*P one O
*I *426:HI O *D sky130_fd_sc_hd__conb_1
*CAP
1 one 0.00119011
2 *426:HI 0.00119011
3 one zero 0
4 mgmt_gpio_in one 0
5 *15:7 one 0
*RES
1 *426:HI one 23.7944 
*END

*D_NET *18 0.00384386
*CONN
*P pad_gpio_ana_en O
*I *399:Q O *D sky130_fd_sc_hd__dfbbn_2
*CAP
1 pad_gpio_ana_en 0.00192193
2 *399:Q 0.00192193
3 pad_gpio_ana_en pad_gpio_ana_pol 0
4 pad_gpio_ana_en pad_gpio_ana_sel 0
5 *2:14 pad_gpio_ana_en 0
6 *16:7 pad_gpio_ana_en 0
*RES
1 *399:Q pad_gpio_ana_en 29.5823 
*END

*D_NET *19 0.00308212
*CONN
*P pad_gpio_ana_pol O
*I *401:Q O *D sky130_fd_sc_hd__dfbbn_2
*CAP
1 pad_gpio_ana_pol 0.00154106
2 *401:Q 0.00154106
3 pad_gpio_ana_pol pad_gpio_ana_sel 0
4 pad_gpio_ana_pol *368:A_N 0
5 pad_gpio_ana_en pad_gpio_ana_pol 0
6 *368:B pad_gpio_ana_pol 0
7 *3:26 pad_gpio_ana_pol 0
*RES
1 *401:Q pad_gpio_ana_pol 27.4972 
*END

*D_NET *20 0.00378715
*CONN
*P pad_gpio_ana_sel O
*I *400:Q O *D sky130_fd_sc_hd__dfbbn_2
*CAP
1 pad_gpio_ana_sel 0.00189357
2 *400:Q 0.00189357
3 pad_gpio_ana_sel pad_gpio_dm[1] 0
4 pad_gpio_ana_sel *423:A 0
5 pad_gpio_ana_en pad_gpio_ana_sel 0
6 pad_gpio_ana_pol pad_gpio_ana_sel 0
*RES
1 *400:Q pad_gpio_ana_sel 26.4775 
*END

*D_NET *21 0.00339358
*CONN
*P pad_gpio_dm[0] O
*I *396:Q O *D sky130_fd_sc_hd__dfbbn_2
*CAP
1 pad_gpio_dm[0] 1.64384e-05
2 *396:Q 0.00168035
3 *21:16 1.64384e-05
4 *21:12 0.00168035
5 *21:12 *40:8 0
6 *15:29 *21:12 0
*RES
1 *396:Q *21:12 49.0768 
2 *21:12 pad_gpio_dm[0] 3.41 
3 pad_gpio_dm[0] *21:16 0.0595333 
*END

*D_NET *22 0.00309238
*CONN
*P pad_gpio_dm[1] O
*I *348:B I *D sky130_fd_sc_hd__and3b_2
*I *397:Q O *D sky130_fd_sc_hd__dfbbn_2
*CAP
1 pad_gpio_dm[1] 0.0011107
2 *348:B 0.000364929
3 *397:Q 7.05639e-05
4 *22:8 0.00154619
5 pad_gpio_dm[1] pad_gpio_dm[2] 0
6 *348:B *349:A1 0
7 *348:B *350:A1 0
8 *348:B *23:10 0
9 *348:B *26:24 0
10 *348:B *32:74 0
11 *22:8 *350:A1 0
12 pad_gpio_ana_sel pad_gpio_dm[1] 0
*RES
1 *397:Q *22:8 15.4518 
2 *22:8 *348:B 22.4875 
3 *22:8 pad_gpio_dm[1] 7.4332 
*END

*D_NET *23 0.00560763
*CONN
*P pad_gpio_dm[2] O
*I *348:A_N I *D sky130_fd_sc_hd__and3b_2
*I *145:DIODE I *D sky130_fd_sc_hd__diode_2
*I *398:Q O *D sky130_fd_sc_hd__dfbbn_2
*CAP
1 pad_gpio_dm[2] 0.00117044
2 *348:A_N 0
3 *145:DIODE 9.79704e-05
4 *398:Q 0.00111204
5 *23:10 0.000521339
6 *23:8 0.00270584
7 pad_gpio_dm[2] pad_gpio_holdover 0
8 *23:8 *347:B1 0
9 *23:8 *419:TE_B 0
10 *23:8 *440:A 0
11 *23:8 *32:69 0
12 *23:10 *141:DIODE 0
13 *23:10 *396:RESET_B 0
14 *23:10 *26:24 0
15 *23:10 *32:69 0
16 *23:10 *32:74 0
17 pad_gpio_dm[1] pad_gpio_dm[2] 0
18 *158:DIODE *23:8 0
19 *348:B *23:10 0
20 *3:17 *23:8 0
21 *3:25 *23:8 0
*RES
1 *398:Q *23:8 38.7732 
2 *23:8 *23:10 9.6875 
3 *23:10 *145:DIODE 15.9786 
4 *23:10 *348:A_N 13.8 
5 *23:8 pad_gpio_dm[2] 7.6494 
*END

*D_NET *24 0.00664971
*CONN
*P pad_gpio_holdover O
*I *390:Q O *D sky130_fd_sc_hd__dfbbn_2
*CAP
1 pad_gpio_holdover 0.00302104
2 *390:Q 0.000303816
3 *24:13 0.00332486
4 pad_gpio_holdover pad_gpio_ib_mode_sel 0
5 pad_gpio_holdover *422:A 0
6 pad_gpio_holdover *97:21 0
7 *24:13 *97:33 0
8 pad_gpio_dm[2] pad_gpio_holdover 0
9 *6:36 pad_gpio_holdover 0
10 *11:12 pad_gpio_holdover 0
11 *11:12 *24:13 0
*RES
1 *390:Q *24:13 29.425 
2 *24:13 pad_gpio_holdover 31.709 
*END

*D_NET *25 0.00414901
*CONN
*P pad_gpio_ib_mode_sel O
*I *394:Q O *D sky130_fd_sc_hd__dfbbn_2
*CAP
1 pad_gpio_ib_mode_sel 0.00207451
2 *394:Q 0.00207451
3 pad_gpio_ib_mode_sel *410:D 0
4 pad_gpio_ib_mode_sel *26:8 0
5 pad_gpio_ib_mode_sel *32:35 0
6 pad_gpio_ib_mode_sel *114:5 0
7 pad_gpio_holdover pad_gpio_ib_mode_sel 0
*RES
1 *394:Q pad_gpio_ib_mode_sel 28.5878 
*END

*D_NET *26 0.00427922
*CONN
*P pad_gpio_in I
*I *419:A I *D sky130_fd_sc_hd__ebufn_2
*I *342:A I *D sky130_fd_sc_hd__inv_2
*I *217:DIODE I *D sky130_fd_sc_hd__diode_2
*I *141:DIODE I *D sky130_fd_sc_hd__diode_2
*CAP
1 pad_gpio_in 0.00112039
2 *419:A 8.55626e-05
3 *342:A 0
4 *217:DIODE 6.50276e-05
5 *141:DIODE 0.000180097
6 *26:24 0.000697083
7 *26:13 0.000688531
8 *26:8 0.00144253
9 *419:A pad_gpio_inenb 0
10 *26:13 *163:DIODE 0
11 *26:13 *350:A1 0
12 *26:24 *349:S 0
13 *26:24 *350:A1 0
14 *26:24 *427:A 0
15 mgmt_gpio_in *26:24 0
16 pad_gpio_ib_mode_sel *26:8 0
17 *347:A2 *26:8 0
18 *347:A2 *26:13 0
19 *347:A2 *26:24 0
20 *348:B *26:24 0
21 *348:C *217:DIODE 0
22 *349:A0 *141:DIODE 0
23 *349:A0 *26:24 0
24 *23:10 *141:DIODE 0
25 *23:10 *26:24 0
*RES
1 pad_gpio_in *26:8 8.47657 
2 *26:8 *26:13 9.82143 
3 *26:13 *26:24 15.0536 
4 *26:24 *141:DIODE 17.7107 
5 *26:24 *217:DIODE 15.1571 
6 *26:13 *342:A 9.3 
7 *26:8 *419:A 15.5857 
*END

*D_NET *27 0.00596713
*CONN
*P pad_gpio_inenb O
*I *345:A_N I *D sky130_fd_sc_hd__nand2b_2
*I *142:DIODE I *D sky130_fd_sc_hd__diode_2
*I *393:Q O *D sky130_fd_sc_hd__dfbbn_2
*CAP
1 pad_gpio_inenb 0.00197056
2 *345:A_N 0
3 *142:DIODE 0
4 *393:Q 0.00075544
5 *27:40 1.64384e-05
6 *27:23 0.00221169
7 *27:17 0.00101301
8 pad_gpio_inenb *440:A 0
9 pad_gpio_inenb *29:7 0
10 pad_gpio_inenb *40:18 0
11 *27:17 pad_gpio_slow_sel 0
12 *27:17 *378:A 0
13 *27:17 *391:CLK_N 0
14 *27:17 *391:RESET_B 0
15 *27:23 *440:A 0
16 *419:A pad_gpio_inenb 0
17 *12:28 *27:17 0
18 *12:42 *27:17 0
*RES
1 *393:Q *27:17 34.2643 
2 *27:17 *27:23 14.7321 
3 *27:23 *142:DIODE 9.3 
4 *27:23 pad_gpio_inenb 49.0618 
5 pad_gpio_inenb *27:40 0.0595333 
6 *27:17 *345:A_N 9.3 
*END

*D_NET *28 0.00325859
*CONN
*P pad_gpio_out O
*I *350:X O *D sky130_fd_sc_hd__mux2_1
*CAP
1 pad_gpio_out 1.64384e-05
2 *350:X 0.00161286
3 *28:16 1.64384e-05
4 *28:12 0.00161286
5 *28:12 *29:7 0
6 *28:12 *40:18 0
*RES
1 *350:X *28:12 47.5946 
2 *28:12 pad_gpio_out 3.41 
3 pad_gpio_out *28:16 0.0595333 
*END

*D_NET *29 0.00468673
*CONN
*P pad_gpio_outenb O
*I *347:X O *D sky130_fd_sc_hd__a31o_2
*CAP
1 pad_gpio_outenb 0.000172643
2 *347:X 0
3 *29:7 0.00234337
4 *29:4 0.00217072
5 *29:7 *40:18 0
6 pad_gpio_inenb *29:7 0
7 *347:A2 *29:7 0
8 *28:12 *29:7 0
*RES
1 *347:X *29:4 9.3 
2 *29:4 *29:7 49.8036 
3 *29:7 pad_gpio_outenb 7.32964 
*END

*D_NET *30 0.0031793
*CONN
*P pad_gpio_slow_sel O
*I *391:Q O *D sky130_fd_sc_hd__dfbbn_2
*CAP
1 pad_gpio_slow_sel 0.00158965
2 *391:Q 0.00158965
3 pad_gpio_slow_sel *391:CLK_N 0
4 pad_gpio_slow_sel *32:7 0
5 pad_gpio_slow_sel *32:35 0
6 *12:42 pad_gpio_slow_sel 0
7 *27:17 pad_gpio_slow_sel 0
*RES
1 *391:Q pad_gpio_slow_sel 28.7829 
*END

*D_NET *31 0.0036014
*CONN
*P pad_gpio_vtrip_sel O
*I *392:Q O *D sky130_fd_sc_hd__dfbbn_2
*CAP
1 pad_gpio_vtrip_sel 4.19613e-05
2 *392:Q 0.00175874
3 *31:16 1.64384e-05
4 *31:9 0.00178426
5 pad_gpio_vtrip_sel *40:18 0
6 *31:9 *392:RESET_B 0
7 *31:9 *34:15 0
*RES
1 *392:Q *31:9 46.0679 
2 *31:9 pad_gpio_vtrip_sel 8.49036 
3 pad_gpio_vtrip_sel *31:16 0.0595333 
*END

*D_NET *32 0.0296682
*CONN
*P resetn I
*I *216:DIODE I *D sky130_fd_sc_hd__diode_2
*I *187:DIODE I *D sky130_fd_sc_hd__diode_2
*I *185:DIODE I *D sky130_fd_sc_hd__diode_2
*I *215:DIODE I *D sky130_fd_sc_hd__diode_2
*I *149:DIODE I *D sky130_fd_sc_hd__diode_2
*I *151:DIODE I *D sky130_fd_sc_hd__diode_2
*I *173:DIODE I *D sky130_fd_sc_hd__diode_2
*I *351:A I *D sky130_fd_sc_hd__or2_2
*I *155:DIODE I *D sky130_fd_sc_hd__diode_2
*I *354:A_N I *D sky130_fd_sc_hd__nand2b_2
*I *202:DIODE I *D sky130_fd_sc_hd__diode_2
*I *359:A I *D sky130_fd_sc_hd__or2_2
*I *165:DIODE I *D sky130_fd_sc_hd__diode_2
*I *353:A I *D sky130_fd_sc_hd__or2_2
*I *205:DIODE I *D sky130_fd_sc_hd__diode_2
*I *405:RESET_B I *D sky130_fd_sc_hd__dfrtp_2
*I *153:DIODE I *D sky130_fd_sc_hd__diode_2
*I *403:RESET_B I *D sky130_fd_sc_hd__dfrtp_2
*I *404:RESET_B I *D sky130_fd_sc_hd__dfrtp_2
*I *167:DIODE I *D sky130_fd_sc_hd__diode_2
*I *356:A_N I *D sky130_fd_sc_hd__nand2b_2
*I *362:A_N I *D sky130_fd_sc_hd__nand2b_2
*I *402:RESET_B I *D sky130_fd_sc_hd__dfrtp_2
*I *352:A_N I *D sky130_fd_sc_hd__nand2b_2
*I *175:DIODE I *D sky130_fd_sc_hd__diode_2
*I *364:A_N I *D sky130_fd_sc_hd__nand2b_2
*I *203:DIODE I *D sky130_fd_sc_hd__diode_2
*I *204:DIODE I *D sky130_fd_sc_hd__diode_2
*I *363:A I *D sky130_fd_sc_hd__or2_2
*I *415:RESET_B I *D sky130_fd_sc_hd__dfrtp_2
*I *161:DIODE I *D sky130_fd_sc_hd__diode_2
*I *370:A_N I *D sky130_fd_sc_hd__nand2b_2
*I *369:A I *D sky130_fd_sc_hd__or2_2
*I *214:DIODE I *D sky130_fd_sc_hd__diode_2
*I *416:A I *D sky130_fd_sc_hd__buf_2
*I *357:A I *D sky130_fd_sc_hd__or2_2
*I *414:RESET_B I *D sky130_fd_sc_hd__dfrtp_2
*I *211:DIODE I *D sky130_fd_sc_hd__diode_2
*I *355:A I *D sky130_fd_sc_hd__or2_2
*I *210:DIODE I *D sky130_fd_sc_hd__diode_2
*I *412:RESET_B I *D sky130_fd_sc_hd__dfrtp_2
*I *367:A I *D sky130_fd_sc_hd__or2_2
*I *163:DIODE I *D sky130_fd_sc_hd__diode_2
*I *213:DIODE I *D sky130_fd_sc_hd__diode_2
*I *157:DIODE I *D sky130_fd_sc_hd__diode_2
*I *181:DIODE I *D sky130_fd_sc_hd__diode_2
*I *183:DIODE I *D sky130_fd_sc_hd__diode_2
*I *365:A I *D sky130_fd_sc_hd__or2_2
*I *177:DIODE I *D sky130_fd_sc_hd__diode_2
*I *179:DIODE I *D sky130_fd_sc_hd__diode_2
*I *366:A_N I *D sky130_fd_sc_hd__nand2b_2
*I *197:DIODE I *D sky130_fd_sc_hd__diode_2
*I *199:DIODE I *D sky130_fd_sc_hd__diode_2
*I *209:DIODE I *D sky130_fd_sc_hd__diode_2