*SPEF "ieee 1481-1999"
*DESIGN "mgmt_protect_hv"
*DATE "11:11:11 Fri 11 11, 1111"
*VENDOR "OpenRCX"
*PROGRAM "Parallel Extraction"
*VERSION "1.0"
*DESIGN_FLOW "NAME_SCOPE LOCAL" "PIN_CAP NONE"
*DIVIDER /
*DELIMITER :
*BUS_DELIMITER []
*T_UNIT 1 NS
*C_UNIT 1 PF
*R_UNIT 1 OHM
*L_UNIT 1 HENRY

*NAME_MAP
*1 mprj2_vdd_logic1
*2 mprj_vdd_logic1
*9 mprj2_vdd_logic1_h
*10 mprj_vdd_logic1_h
*11 mprj2_logic_high_hvl
*12 mprj2_logic_high_lv
*13 mprj_logic_high_hvl
*14 mprj_logic_high_lv
*15 FILLER_0_0
*16 FILLER_0_8
*17 FILLER_0_16
*18 FILLER_0_24
*19 FILLER_0_32
*20 FILLER_0_40
*21 FILLER_0_48
*22 FILLER_0_56
*23 FILLER_0_64
*24 FILLER_0_72
*25 FILLER_0_80
*26 FILLER_0_88
*27 FILLER_0_96
*28 FILLER_0_104
*29 FILLER_0_112
*30 FILLER_0_120
*31 FILLER_0_128
*32 FILLER_0_136
*33 FILLER_0_144
*34 FILLER_0_152
*35 FILLER_0_160
*36 FILLER_0_168
*37 FILLER_0_176
*38 FILLER_0_184
*39 FILLER_0_192
*40 FILLER_0_200
*41 FILLER_0_208
*42 FILLER_0_216
*43 FILLER_0_224
*44 FILLER_0_232
*45 FILLER_0_240
*46 FILLER_0_248
*47 FILLER_0_256
*48 FILLER_0_264
*49 FILLER_0_272
*50 FILLER_0_280
*51 FILLER_0_288
*52 FILLER_0_296
*53 FILLER_0_300
*54 FILLER_1_0
*55 FILLER_1_8
*56 FILLER_1_16
*57 FILLER_1_24
*58 FILLER_1_32
*59 FILLER_1_40
*60 FILLER_1_48
*61 FILLER_1_56
*62 FILLER_1_64
*63 FILLER_1_72
*64 FILLER_1_80
*65 FILLER_1_88
*66 FILLER_1_92
*67 FILLER_1_94
*68 FILLER_1_117
*69 FILLER_1_125
*70 FILLER_1_133
*71 FILLER_1_141
*72 FILLER_1_149
*73 FILLER_1_157
*74 FILLER_1_165
*75 FILLER_1_189
*76 FILLER_1_197
*77 FILLER_1_205
*78 FILLER_1_213
*79 FILLER_1_221
*80 FILLER_1_229
*81 FILLER_1_237
*82 FILLER_1_245
*83 FILLER_1_253
*84 FILLER_1_261
*85 FILLER_1_269
*86 FILLER_1_277
*87 FILLER_1_285
*88 FILLER_1_293
*89 FILLER_1_301
*90 FILLER_2_0
*91 FILLER_2_8
*92 FILLER_2_16
*93 FILLER_2_24
*94 FILLER_2_32
*95 FILLER_2_40
*96 FILLER_2_48
*97 FILLER_2_56
*98 FILLER_2_64
*99 FILLER_2_72
*100 FILLER_2_80
*101 FILLER_2_88
*102 FILLER_2_96
*103 FILLER_2_117
*104 FILLER_2_125
*105 FILLER_2_133
*106 FILLER_2_141
*107 FILLER_2_149
*108 FILLER_2_157
*109 FILLER_2_165
*110 FILLER_2_169
*111 FILLER_2_171
*112 FILLER_2_189
*113 FILLER_2_197
*114 FILLER_2_205
*115 FILLER_2_213
*116 FILLER_2_221
*117 FILLER_2_229
*118 FILLER_2_237
*119 FILLER_2_245
*120 FILLER_2_253
*121 FILLER_2_261
*122 FILLER_2_269
*123 FILLER_2_277
*124 FILLER_2_285
*125 FILLER_2_293
*126 FILLER_2_301

*PORTS
mprj2_vdd_logic1 O
mprj_vdd_logic1 O

*D_NET *1 0.00894054
*CONN
*P mprj2_vdd_logic1 O
*I *12:X O *D sky130_fd_sc_hvl__lsbufhv2lv_1
*CAP
1 mprj2_vdd_logic1 0.000164685
2 *12:X 0.000136495
3 *1:9 0.00433377
4 *1:8 0.00430558
5 *1:9 *2:5 0
*RES
1 *12:X *1:8 21.1315 
2 *1:8 *1:9 104.917 
3 *1:9 mprj2_vdd_logic1 10.6698 
*END

*D_NET *2 0.005901
*CONN
*P mprj_vdd_logic1 O
*I *14:X O *D sky130_fd_sc_hvl__lsbufhv2lv_1
*CAP
1 mprj_vdd_logic1 0.000279428
2 *14:X 0
3 *2:5 0.00291451
4 *2:4 0.00263509
5 *2:5 *9:7 7.19686e-05
6 *1:9 *2:5 0
*RES
1 *14:X *2:4 9.24915 
2 *2:4 *2:5 63.2489 
3 *2:5 mprj_vdd_logic1 14.285 
*END

*D_NET *9 0.00401189
*CONN
*I *12:A I *D sky130_fd_sc_hvl__lsbufhv2lv_1
*I *11:HI O *D sky130_fd_sc_hvl__conb_1
*CAP
1 *12:A 0.000185088
2 *11:HI 0
3 *9:7 0.00194467
4 *9:4 0.00175958
5 *12:A *10:8 5.05783e-05
6 *2:5 *9:7 7.19686e-05
*RES
1 *11:HI *9:4 9.24915 
2 *9:4 *9:7 47.4938 
3 *9:7 *12:A 17.9577 
*END

*D_NET *10 0.00370034
*CONN
*I *14:A I *D sky130_fd_sc_hvl__lsbufhv2lv_1
*I *13:HI O *D sky130_fd_sc_hvl__conb_1
*CAP
1 *14:A 0.00172779
2 *13:HI 9.70922e-05
3 *10:8 0.00182488
4 *12:A *10:8 5.05783e-05
*RES
1 *13:HI *10:8 20.6796 
2 *10:8 *14:A 48.192 
*END
