*SPEF "ieee 1481-1999"
*DESIGN "mgmt_protect"
*DATE "11:11:11 Fri 11 11, 1111"
*VENDOR "OpenRCX"
*PROGRAM "Parallel Extraction"
*VERSION "1.0"
*DESIGN_FLOW "NAME_SCOPE LOCAL" "PIN_CAP NONE"
*DIVIDER /
*DELIMITER :
*BUS_DELIMITER []
*T_UNIT 1 NS
*C_UNIT 1 PF
*R_UNIT 1 OHM
*L_UNIT 1 HENRY

*NAME_MAP
*1 caravel_clk
*2 caravel_clk2
*3 caravel_rstn
*4 la_data_in_core[0]
*5 la_data_in_core[100]
*6 la_data_in_core[101]
*7 la_data_in_core[102]
*8 la_data_in_core[103]
*9 la_data_in_core[104]
*10 la_data_in_core[105]
*11 la_data_in_core[106]
*12 la_data_in_core[107]
*13 la_data_in_core[108]
*14 la_data_in_core[109]
*15 la_data_in_core[10]
*16 la_data_in_core[110]
*17 la_data_in_core[111]
*18 la_data_in_core[112]
*19 la_data_in_core[113]
*20 la_data_in_core[114]
*21 la_data_in_core[115]
*22 la_data_in_core[116]
*23 la_data_in_core[117]
*24 la_data_in_core[118]
*25 la_data_in_core[119]
*26 la_data_in_core[11]
*27 la_data_in_core[120]
*28 la_data_in_core[121]
*29 la_data_in_core[122]
*30 la_data_in_core[123]
*31 la_data_in_core[124]
*32 la_data_in_core[125]
*33 la_data_in_core[126]
*34 la_data_in_core[127]
*35 la_data_in_core[12]
*36 la_data_in_core[13]
*37 la_data_in_core[14]
*38 la_data_in_core[15]
*39 la_data_in_core[16]
*40 la_data_in_core[17]
*41 la_data_in_core[18]
*42 la_data_in_core[19]
*43 la_data_in_core[1]
*44 la_data_in_core[20]
*45 la_data_in_core[21]
*46 la_data_in_core[22]
*47 la_data_in_core[23]
*48 la_data_in_core[24]
*49 la_data_in_core[25]
*50 la_data_in_core[26]
*51 la_data_in_core[27]
*52 la_data_in_core[28]
*53 la_data_in_core[29]
*54 la_data_in_core[2]
*55 la_data_in_core[30]
*56 la_data_in_core[31]
*57 la_data_in_core[32]
*58 la_data_in_core[33]
*59 la_data_in_core[34]
*60 la_data_in_core[35]
*61 la_data_in_core[36]
*62 la_data_in_core[37]
*63 la_data_in_core[38]
*64 la_data_in_core[39]
*65 la_data_in_core[3]
*66 la_data_in_core[40]
*67 la_data_in_core[41]
*68 la_data_in_core[42]
*69 la_data_in_core[43]
*70 la_data_in_core[44]
*71 la_data_in_core[45]
*72 la_data_in_core[46]
*73 la_data_in_core[47]
*74 la_data_in_core[48]
*75 la_data_in_core[49]
*76 la_data_in_core[4]
*77 la_data_in_core[50]
*78 la_data_in_core[51]
*79 la_data_in_core[52]
*80 la_data_in_core[53]
*81 la_data_in_core[54]
*82 la_data_in_core[55]
*83 la_data_in_core[56]
*84 la_data_in_core[57]
*85 la_data_in_core[58]
*86 la_data_in_core[59]
*87 la_data_in_core[5]
*88 la_data_in_core[60]
*89 la_data_in_core[61]
*90 la_data_in_core[62]
*91 la_data_in_core[63]
*92 la_data_in_core[64]
*93 la_data_in_core[65]
*94 la_data_in_core[66]
*95 la_data_in_core[67]
*96 la_data_in_core[68]
*97 la_data_in_core[69]
*98 la_data_in_core[6]
*99 la_data_in_core[70]
*100 la_data_in_core[71]
*101 la_data_in_core[72]
*102 la_data_in_core[73]
*103 la_data_in_core[74]
*104 la_data_in_core[75]
*105 la_data_in_core[76]
*106 la_data_in_core[77]
*107 la_data_in_core[78]
*108 la_data_in_core[79]
*109 la_data_in_core[7]
*110 la_data_in_core[80]
*111 la_data_in_core[81]
*112 la_data_in_core[82]
*113 la_data_in_core[83]
*114 la_data_in_core[84]
*115 la_data_in_core[85]
*116 la_data_in_core[86]
*117 la_data_in_core[87]
*118 la_data_in_core[88]
*119 la_data_in_core[89]
*120 la_data_in_core[8]
*121 la_data_in_core[90]
*122 la_data_in_core[91]
*123 la_data_in_core[92]
*124 la_data_in_core[93]
*125 la_data_in_core[94]
*126 la_data_in_core[95]
*127 la_data_in_core[96]
*128 la_data_in_core[97]
*129 la_data_in_core[98]
*130 la_data_in_core[99]
*131 la_data_in_core[9]
*132 la_data_in_mprj[0]
*133 la_data_in_mprj[100]
*134 la_data_in_mprj[101]
*135 la_data_in_mprj[102]
*136 la_data_in_mprj[103]
*137 la_data_in_mprj[104]
*138 la_data_in_mprj[105]
*139 la_data_in_mprj[106]
*140 la_data_in_mprj[107]
*141 la_data_in_mprj[108]
*142 la_data_in_mprj[109]
*143 la_data_in_mprj[10]
*144 la_data_in_mprj[110]
*145 la_data_in_mprj[111]
*146 la_data_in_mprj[112]
*147 la_data_in_mprj[113]
*148 la_data_in_mprj[114]
*149 la_data_in_mprj[115]
*150 la_data_in_mprj[116]
*151 la_data_in_mprj[117]
*152 la_data_in_mprj[118]
*153 la_data_in_mprj[119]
*154 la_data_in_mprj[11]
*155 la_data_in_mprj[120]
*156 la_data_in_mprj[121]
*157 la_data_in_mprj[122]
*158 la_data_in_mprj[123]
*159 la_data_in_mprj[124]
*160 la_data_in_mprj[125]
*161 la_data_in_mprj[126]
*162 la_data_in_mprj[127]
*163 la_data_in_mprj[12]
*164 la_data_in_mprj[13]
*165 la_data_in_mprj[14]
*166 la_data_in_mprj[15]
*167 la_data_in_mprj[16]
*168 la_data_in_mprj[17]
*169 la_data_in_mprj[18]
*170 la_data_in_mprj[19]
*171 la_data_in_mprj[1]
*172 la_data_in_mprj[20]
*173 la_data_in_mprj[21]
*174 la_data_in_mprj[22]
*175 la_data_in_mprj[23]
*176 la_data_in_mprj[24]
*177 la_data_in_mprj[25]
*178 la_data_in_mprj[26]
*179 la_data_in_mprj[27]
*180 la_data_in_mprj[28]
*181 la_data_in_mprj[29]
*182 la_data_in_mprj[2]
*183 la_data_in_mprj[30]
*184 la_data_in_mprj[31]
*185 la_data_in_mprj[32]
*186 la_data_in_mprj[33]
*187 la_data_in_mprj[34]
*188 la_data_in_mprj[35]
*189 la_data_in_mprj[36]
*190 la_data_in_mprj[37]
*191 la_data_in_mprj[38]
*192 la_data_in_mprj[39]
*193 la_data_in_mprj[3]
*194 la_data_in_mprj[40]
*195 la_data_in_mprj[41]
*196 la_data_in_mprj[42]
*197 la_data_in_mprj[43]
*198 la_data_in_mprj[44]
*199 la_data_in_mprj[45]
*200 la_data_in_mprj[46]
*201 la_data_in_mprj[47]
*202 la_data_in_mprj[48]
*203 la_data_in_mprj[49]
*204 la_data_in_mprj[4]
*205 la_data_in_mprj[50]
*206 la_data_in_mprj[51]
*207 la_data_in_mprj[52]
*208 la_data_in_mprj[53]
*209 la_data_in_mprj[54]
*210 la_data_in_mprj[55]
*211 la_data_in_mprj[56]
*212 la_data_in_mprj[57]
*213 la_data_in_mprj[58]
*214 la_data_in_mprj[59]
*215 la_data_in_mprj[5]
*216 la_data_in_mprj[60]
*217 la_data_in_mprj[61]
*218 la_data_in_mprj[62]
*219 la_data_in_mprj[63]
*220 la_data_in_mprj[64]
*221 la_data_in_mprj[65]
*222 la_data_in_mprj[66]
*223 la_data_in_mprj[67]
*224 la_data_in_mprj[68]
*225 la_data_in_mprj[69]
*226 la_data_in_mprj[6]
*227 la_data_in_mprj[70]
*228 la_data_in_mprj[71]
*229 la_data_in_mprj[72]
*230 la_data_in_mprj[73]
*231 la_data_in_mprj[74]
*232 la_data_in_mprj[75]
*233 la_data_in_mprj[76]
*234 la_data_in_mprj[77]
*235 la_data_in_mprj[78]
*236 la_data_in_mprj[79]
*237 la_data_in_mprj[7]
*238 la_data_in_mprj[80]
*239 la_data_in_mprj[81]
*240 la_data_in_mprj[82]
*241 la_data_in_mprj[83]
*242 la_data_in_mprj[84]
*243 la_data_in_mprj[85]
*244 la_data_in_mprj[86]
*245 la_data_in_mprj[87]
*246 la_data_in_mprj[88]
*247 la_data_in_mprj[89]
*248 la_data_in_mprj[8]
*249 la_data_in_mprj[90]
*250 la_data_in_mprj[91]
*251 la_data_in_mprj[92]
*252 la_data_in_mprj[93]
*253 la_data_in_mprj[94]
*254 la_data_in_mprj[95]
*255 la_data_in_mprj[96]
*256 la_data_in_mprj[97]
*257 la_data_in_mprj[98]
*258 la_data_in_mprj[99]
*259 la_data_in_mprj[9]
*260 la_data_out_core[0]
*261 la_data_out_core[100]
*262 la_data_out_core[101]
*263 la_data_out_core[102]
*264 la_data_out_core[103]
*265 la_data_out_core[104]
*266 la_data_out_core[105]
*267 la_data_out_core[106]
*268 la_data_out_core[107]
*269 la_data_out_core[108]
*270 la_data_out_core[109]
*271 la_data_out_core[10]
*272 la_data_out_core[110]
*273 la_data_out_core[111]
*274 la_data_out_core[112]
*275 la_data_out_core[113]
*276 la_data_out_core[114]
*277 la_data_out_core[115]
*278 la_data_out_core[116]
*279 la_data_out_core[117]
*280 la_data_out_core[118]
*281 la_data_out_core[119]
*282 la_data_out_core[11]
*283 la_data_out_core[120]
*284 la_data_out_core[121]
*285 la_data_out_core[122]
*286 la_data_out_core[123]
*287 la_data_out_core[124]
*288 la_data_out_core[125]
*289 la_data_out_core[126]
*290 la_data_out_core[127]
*291 la_data_out_core[12]
*292 la_data_out_core[13]
*293 la_data_out_core[14]
*294 la_data_out_core[15]
*295 la_data_out_core[16]
*296 la_data_out_core[17]
*297 la_data_out_core[18]
*298 la_data_out_core[19]
*299 la_data_out_core[1]
*300 la_data_out_core[20]
*301 la_data_out_core[21]
*302 la_data_out_core[22]
*303 la_data_out_core[23]
*304 la_data_out_core[24]
*305 la_data_out_core[25]
*306 la_data_out_core[26]
*307 la_data_out_core[27]
*308 la_data_out_core[28]
*309 la_data_out_core[29]
*310 la_data_out_core[2]
*311 la_data_out_core[30]
*312 la_data_out_core[31]
*313 la_data_out_core[32]
*314 la_data_out_core[33]
*315 la_data_out_core[34]
*316 la_data_out_core[35]
*317 la_data_out_core[36]
*318 la_data_out_core[37]
*319 la_data_out_core[38]
*320 la_data_out_core[39]
*321 la_data_out_core[3]
*322 la_data_out_core[40]
*323 la_data_out_core[41]
*324 la_data_out_core[42]
*325 la_data_out_core[43]
*326 la_data_out_core[44]
*327 la_data_out_core[45]
*328 la_data_out_core[46]
*329 la_data_out_core[47]
*330 la_data_out_core[48]
*331 la_data_out_core[49]
*332 la_data_out_core[4]
*333 la_data_out_core[50]
*334 la_data_out_core[51]
*335 la_data_out_core[52]
*336 la_data_out_core[53]
*337 la_data_out_core[54]
*338 la_data_out_core[55]
*339 la_data_out_core[56]
*340 la_data_out_core[57]
*341 la_data_out_core[58]
*342 la_data_out_core[59]
*343 la_data_out_core[5]
*344 la_data_out_core[60]
*345 la_data_out_core[61]
*346 la_data_out_core[62]
*347 la_data_out_core[63]
*348 la_data_out_core[64]
*349 la_data_out_core[65]
*350 la_data_out_core[66]
*351 la_data_out_core[67]
*352 la_data_out_core[68]
*353 la_data_out_core[69]
*354 la_data_out_core[6]
*355 la_data_out_core[70]
*356 la_data_out_core[71]
*357 la_data_out_core[72]
*358 la_data_out_core[73]
*359 la_data_out_core[74]
*360 la_data_out_core[75]
*361 la_data_out_core[76]
*362 la_data_out_core[77]
*363 la_data_out_core[78]
*364 la_data_out_core[79]
*365 la_data_out_core[7]
*366 la_data_out_core[80]
*367 la_data_out_core[81]
*368 la_data_out_core[82]
*369 la_data_out_core[83]
*370 la_data_out_core[84]
*371 la_data_out_core[85]
*372 la_data_out_core[86]
*373 la_data_out_core[87]
*374 la_data_out_core[88]
*375 la_data_out_core[89]
*376 la_data_out_core[8]
*377 la_data_out_core[90]
*378 la_data_out_core[91]
*379 la_data_out_core[92]
*380 la_data_out_core[93]
*381 la_data_out_core[94]
*382 la_data_out_core[95]
*383 la_data_out_core[96]
*384 la_data_out_core[97]
*385 la_data_out_core[98]
*386 la_data_out_core[99]
*387 la_data_out_core[9]
*388 la_data_out_mprj[0]
*389 la_data_out_mprj[100]
*390 la_data_out_mprj[101]
*391 la_data_out_mprj[102]
*392 la_data_out_mprj[103]
*393 la_data_out_mprj[104]
*394 la_data_out_mprj[105]
*395 la_data_out_mprj[106]
*396 la_data_out_mprj[107]
*397 la_data_out_mprj[108]
*398 la_data_out_mprj[109]
*399 la_data_out_mprj[10]
*400 la_data_out_mprj[110]
*401 la_data_out_mprj[111]
*402 la_data_out_mprj[112]
*403 la_data_out_mprj[113]
*404 la_data_out_mprj[114]
*405 la_data_out_mprj[115]
*406 la_data_out_mprj[116]
*407 la_data_out_mprj[117]
*408 la_data_out_mprj[118]
*409 la_data_out_mprj[119]
*410 la_data_out_mprj[11]
*411 la_data_out_mprj[120]
*412 la_data_out_mprj[121]
*413 la_data_out_mprj[122]
*414 la_data_out_mprj[123]
*415 la_data_out_mprj[124]
*416 la_data_out_mprj[125]
*417 la_data_out_mprj[126]
*418 la_data_out_mprj[127]
*419 la_data_out_mprj[12]
*420 la_data_out_mprj[13]
*421 la_data_out_mprj[14]
*422 la_data_out_mprj[15]
*423 la_data_out_mprj[16]
*424 la_data_out_mprj[17]
*425 la_data_out_mprj[18]
*426 la_data_out_mprj[19]
*427 la_data_out_mprj[1]
*428 la_data_out_mprj[20]
*429 la_data_out_mprj[21]
*430 la_data_out_mprj[22]
*431 la_data_out_mprj[23]
*432 la_data_out_mprj[24]
*433 la_data_out_mprj[25]
*434 la_data_out_mprj[26]
*435 la_data_out_mprj[27]
*436 la_data_out_mprj[28]
*437 la_data_out_mprj[29]
*438 la_data_out_mprj[2]
*439 la_data_out_mprj[30]
*440 la_data_out_mprj[31]
*441 la_data_out_mprj[32]
*442 la_data_out_mprj[33]
*443 la_data_out_mprj[34]
*444 la_data_out_mprj[35]
*445 la_data_out_mprj[36]
*446 la_data_out_mprj[37]
*447 la_data_out_mprj[38]
*448 la_data_out_mprj[39]
*449 la_data_out_mprj[3]
*450 la_data_out_mprj[40]
*451 la_data_out_mprj[41]
*452 la_data_out_mprj[42]
*453 la_data_out_mprj[43]
*454 la_data_out_mprj[44]
*455 la_data_out_mprj[45]
*456 la_data_out_mprj[46]
*457 la_data_out_mprj[47]
*458 la_data_out_mprj[48]
*459 la_data_out_mprj[49]
*460 la_data_out_mprj[4]
*461 la_data_out_mprj[50]
*462 la_data_out_mprj[51]
*463 la_data_out_mprj[52]
*464 la_data_out_mprj[53]
*465 la_data_out_mprj[54]
*466 la_data_out_mprj[55]
*467 la_data_out_mprj[56]
*468 la_data_out_mprj[57]
*469 la_data_out_mprj[58]
*470 la_data_out_mprj[59]
*471 la_data_out_mprj[5]
*472 la_data_out_mprj[60]
*473 la_data_out_mprj[61]
*474 la_data_out_mprj[62]
*475 la_data_out_mprj[63]
*476 la_data_out_mprj[64]
*477 la_data_out_mprj[65]
*478 la_data_out_mprj[66]
*479 la_data_out_mprj[67]
*480 la_data_out_mprj[68]
*481 la_data_out_mprj[69]
*482 la_data_out_mprj[6]
*483 la_data_out_mprj[70]
*484 la_data_out_mprj[71]
*485 la_data_out_mprj[72]
*486 la_data_out_mprj[73]
*487 la_data_out_mprj[74]
*488 la_data_out_mprj[75]
*489 la_data_out_mprj[76]
*490 la_data_out_mprj[77]
*491 la_data_out_mprj[78]
*492 la_data_out_mprj[79]
*493 la_data_out_mprj[7]
*494 la_data_out_mprj[80]
*495 la_data_out_mprj[81]
*496 la_data_out_mprj[82]
*497 la_data_out_mprj[83]
*498 la_data_out_mprj[84]
*499 la_data_out_mprj[85]
*500 la_data_out_mprj[86]
*501 la_data_out_mprj[87]
*502 la_data_out_mprj[88]
*503 la_data_out_mprj[89]
*504 la_data_out_mprj[8]
*505 la_data_out_mprj[90]
*506 la_data_out_mprj[91]
*507 la_data_out_mprj[92]
*508 la_data_out_mprj[93]
*509 la_data_out_mprj[94]
*510 la_data_out_mprj[95]
*511 la_data_out_mprj[96]
*512 la_data_out_mprj[97]
*513 la_data_out_mprj[98]
*514 la_data_out_mprj[99]
*515 la_data_out_mprj[9]
*516 la_iena_mprj[0]
*517 la_iena_mprj[100]
*518 la_iena_mprj[101]
*519 la_iena_mprj[102]
*520 la_iena_mprj[103]
*521 la_iena_mprj[104]
*522 la_iena_mprj[105]
*523 la_iena_mprj[106]
*524 la_iena_mprj[107]
*525 la_iena_mprj[108]
*526 la_iena_mprj[109]
*527 la_iena_mprj[10]
*528 la_iena_mprj[110]
*529 la_iena_mprj[111]
*530 la_iena_mprj[112]
*531 la_iena_mprj[113]
*532 la_iena_mprj[114]
*533 la_iena_mprj[115]
*534 la_iena_mprj[116]
*535 la_iena_mprj[117]
*536 la_iena_mprj[118]
*537 la_iena_mprj[119]
*538 la_iena_mprj[11]
*539 la_iena_mprj[120]
*540 la_iena_mprj[121]
*541 la_iena_mprj[122]
*542 la_iena_mprj[123]
*543 la_iena_mprj[124]
*544 la_iena_mprj[125]
*545 la_iena_mprj[126]
*546 la_iena_mprj[127]
*547 la_iena_mprj[12]
*548 la_iena_mprj[13]
*549 la_iena_mprj[14]
*550 la_iena_mprj[15]
*551 la_iena_mprj[16]
*552 la_iena_mprj[17]
*553 la_iena_mprj[18]
*554 la_iena_mprj[19]
*555 la_iena_mprj[1]
*556 la_iena_mprj[20]
*557 la_iena_mprj[21]
*558 la_iena_mprj[22]
*559 la_iena_mprj[23]
*560 la_iena_mprj[24]
*561 la_iena_mprj[25]
*562 la_iena_mprj[26]
*563 la_iena_mprj[27]
*564 la_iena_mprj[28]
*565 la_iena_mprj[29]
*566 la_iena_mprj[2]
*567 la_iena_mprj[30]
*568 la_iena_mprj[31]
*569 la_iena_mprj[32]
*570 la_iena_mprj[33]
*571 la_iena_mprj[34]
*572 la_iena_mprj[35]
*573 la_iena_mprj[36]
*574 la_iena_mprj[37]
*575 la_iena_mprj[38]
*576 la_iena_mprj[39]
*577 la_iena_mprj[3]
*578 la_iena_mprj[40]
*579 la_iena_mprj[41]
*580 la_iena_mprj[42]
*581 la_iena_mprj[43]
*582 la_iena_mprj[44]
*583 la_iena_mprj[45]
*584 la_iena_mprj[46]
*585 la_iena_mprj[47]
*586 la_iena_mprj[48]
*587 la_iena_mprj[49]
*588 la_iena_mprj[4]
*589 la_iena_mprj[50]
*590 la_iena_mprj[51]
*591 la_iena_mprj[52]
*592 la_iena_mprj[53]
*593 la_iena_mprj[54]
*594 la_iena_mprj[55]
*595 la_iena_mprj[56]
*596 la_iena_mprj[57]
*597 la_iena_mprj[58]
*598 la_iena_mprj[59]
*599 la_iena_mprj[5]
*600 la_iena_mprj[60]
*601 la_iena_mprj[61]
*602 la_iena_mprj[62]
*603 la_iena_mprj[63]
*604 la_iena_mprj[64]
*605 la_iena_mprj[65]
*606 la_iena_mprj[66]
*607 la_iena_mprj[67]
*608 la_iena_mprj[68]
*609 la_iena_mprj[69]
*610 la_iena_mprj[6]
*611 la_iena_mprj[70]
*612 la_iena_mprj[71]
*613 la_iena_mprj[72]
*614 la_iena_mprj[73]
*615 la_iena_mprj[74]
*616 la_iena_mprj[75]
*617 la_iena_mprj[76]
*618 la_iena_mprj[77]
*619 la_iena_mprj[78]
*620 la_iena_mprj[79]
*621 la_iena_mprj[7]
*622 la_iena_mprj[80]
*623 la_iena_mprj[81]
*624 la_iena_mprj[82]
*625 la_iena_mprj[83]
*626 la_iena_mprj[84]
*627 la_iena_mprj[85]
*628 la_iena_mprj[86]
*629 la_iena_mprj[87]
*630 la_iena_mprj[88]
*631 la_iena_mprj[89]
*632 la_iena_mprj[8]
*633 la_iena_mprj[90]
*634 la_iena_mprj[91]
*635 la_iena_mprj[92]
*636 la_iena_mprj[93]
*637 la_iena_mprj[94]
*638 la_iena_mprj[95]
*639 la_iena_mprj[96]
*640 la_iena_mprj[97]
*641 la_iena_mprj[98]
*642 la_iena_mprj[99]
*643 la_iena_mprj[9]
*644 la_oenb_core[0]
*645 la_oenb_core[100]
*646 la_oenb_core[101]
*647 la_oenb_core[102]
*648 la_oenb_core[103]
*649 la_oenb_core[104]
*650 la_oenb_core[105]
*651 la_oenb_core[106]
*652 la_oenb_core[107]
*653 la_oenb_core[108]
*654 la_oenb_core[109]
*655 la_oenb_core[10]
*656 la_oenb_core[110]
*657 la_oenb_core[111]
*658 la_oenb_core[112]
*659 la_oenb_core[113]
*660 la_oenb_core[114]
*661 la_oenb_core[115]
*662 la_oenb_core[116]
*663 la_oenb_core[117]
*664 la_oenb_core[118]
*665 la_oenb_core[119]
*666 la_oenb_core[11]
*667 la_oenb_core[120]
*668 la_oenb_core[121]
*669 la_oenb_core[122]
*670 la_oenb_core[123]
*671 la_oenb_core[124]
*672 la_oenb_core[125]
*673 la_oenb_core[126]
*674 la_oenb_core[127]
*675 la_oenb_core[12]
*676 la_oenb_core[13]
*677 la_oenb_core[14]
*678 la_oenb_core[15]
*679 la_oenb_core[16]
*680 la_oenb_core[17]
*681 la_oenb_core[18]
*682 la_oenb_core[19]
*683 la_oenb_core[1]
*684 la_oenb_core[20]
*685 la_oenb_core[21]
*686 la_oenb_core[22]
*687 la_oenb_core[23]
*688 la_oenb_core[24]
*689 la_oenb_core[25]
*690 la_oenb_core[26]
*691 la_oenb_core[27]
*692 la_oenb_core[28]
*693 la_oenb_core[29]
*694 la_oenb_core[2]
*695 la_oenb_core[30]
*696 la_oenb_core[31]
*697 la_oenb_core[32]
*698 la_oenb_core[33]
*699 la_oenb_core[34]
*700 la_oenb_core[35]
*701 la_oenb_core[36]
*702 la_oenb_core[37]
*703 la_oenb_core[38]
*704 la_oenb_core[39]
*705 la_oenb_core[3]
*706 la_oenb_core[40]
*707 la_oenb_core[41]
*708 la_oenb_core[42]
*709 la_oenb_core[43]
*710 la_oenb_core[44]
*711 la_oenb_core[45]
*712 la_oenb_core[46]
*713 la_oenb_core[47]
*714 la_oenb_core[48]
*715 la_oenb_core[49]
*716 la_oenb_core[4]
*717 la_oenb_core[50]
*718 la_oenb_core[51]
*719 la_oenb_core[52]
*720 la_oenb_core[53]
*721 la_oenb_core[54]
*722 la_oenb_core[55]
*723 la_oenb_core[56]
*724 la_oenb_core[57]
*725 la_oenb_core[58]
*726 la_oenb_core[59]
*727 la_oenb_core[5]
*728 la_oenb_core[60]
*729 la_oenb_core[61]
*730 la_oenb_core[62]
*731 la_oenb_core[63]
*732 la_oenb_core[64]
*733 la_oenb_core[65]
*734 la_oenb_core[66]
*735 la_oenb_core[67]
*736 la_oenb_core[68]
*737 la_oenb_core[69]
*738 la_oenb_core[6]
*739 la_oenb_core[70]
*740 la_oenb_core[71]
*741 la_oenb_core[72]
*742 la_oenb_core[73]
*743 la_oenb_core[74]
*744 la_oenb_core[75]
*745 la_oenb_core[76]
*746 la_oenb_core[77]
*747 la_oenb_core[78]
*748 la_oenb_core[79]
*749 la_oenb_core[7]
*750 la_oenb_core[80]
*751 la_oenb_core[81]
*752 la_oenb_core[82]
*753 la_oenb_core[83]
*754 la_oenb_core[84]
*755 la_oenb_core[85]
*756 la_oenb_core[86]
*757 la_oenb_core[87]
*758 la_oenb_core[88]
*759 la_oenb_core[89]
*760 la_oenb_core[8]
*761 la_oenb_core[90]
*762 la_oenb_core[91]
*763 la_oenb_core[92]
*764 la_oenb_core[93]
*765 la_oenb_core[94]
*766 la_oenb_core[95]
*767 la_oenb_core[96]
*768 la_oenb_core[97]
*769 la_oenb_core[98]
*770 la_oenb_core[99]
*771 la_oenb_core[9]
*772 la_oenb_mprj[0]
*773 la_oenb_mprj[100]
*774 la_oenb_mprj[101]
*775 la_oenb_mprj[102]
*776 la_oenb_mprj[103]
*777 la_oenb_mprj[104]
*778 la_oenb_mprj[105]
*779 la_oenb_mprj[106]
*780 la_oenb_mprj[107]
*781 la_oenb_mprj[108]
*782 la_oenb_mprj[109]
*783 la_oenb_mprj[10]
*784 la_oenb_mprj[110]
*785 la_oenb_mprj[111]
*786 la_oenb_mprj[112]
*787 la_oenb_mprj[113]
*788 la_oenb_mprj[114]
*789 la_oenb_mprj[115]
*790 la_oenb_mprj[116]
*791 la_oenb_mprj[117]
*792 la_oenb_mprj[118]
*793 la_oenb_mprj[119]
*794 la_oenb_mprj[11]
*795 la_oenb_mprj[120]
*796 la_oenb_mprj[121]
*797 la_oenb_mprj[122]
*798 la_oenb_mprj[123]
*799 la_oenb_mprj[124]
*800 la_oenb_mprj[125]
*801 la_oenb_mprj[126]
*802 la_oenb_mprj[127]
*803 la_oenb_mprj[12]
*804 la_oenb_mprj[13]
*805 la_oenb_mprj[14]
*806 la_oenb_mprj[15]
*807 la_oenb_mprj[16]
*808 la_oenb_mprj[17]
*809 la_oenb_mprj[18]
*810 la_oenb_mprj[19]
*811 la_oenb_mprj[1]
*812 la_oenb_mprj[20]
*813 la_oenb_mprj[21]
*814 la_oenb_mprj[22]
*815 la_oenb_mprj[23]
*816 la_oenb_mprj[24]
*817 la_oenb_mprj[25]
*818 la_oenb_mprj[26]
*819 la_oenb_mprj[27]
*820 la_oenb_mprj[28]
*821 la_oenb_mprj[29]
*822 la_oenb_mprj[2]
*823 la_oenb_mprj[30]
*824 la_oenb_mprj[31]
*825 la_oenb_mprj[32]
*826 la_oenb_mprj[33]
*827 la_oenb_mprj[34]
*828 la_oenb_mprj[35]
*829 la_oenb_mprj[36]
*830 la_oenb_mprj[37]
*831 la_oenb_mprj[38]
*832 la_oenb_mprj[39]
*833 la_oenb_mprj[3]
*834 la_oenb_mprj[40]
*835 la_oenb_mprj[41]
*836 la_oenb_mprj[42]
*837 la_oenb_mprj[43]
*838 la_oenb_mprj[44]
*839 la_oenb_mprj[45]
*840 la_oenb_mprj[46]
*841 la_oenb_mprj[47]
*842 la_oenb_mprj[48]
*843 la_oenb_mprj[49]
*844 la_oenb_mprj[4]
*845 la_oenb_mprj[50]
*846 la_oenb_mprj[51]
*847 la_oenb_mprj[52]
*848 la_oenb_mprj[53]
*849 la_oenb_mprj[54]
*850 la_oenb_mprj[55]
*851 la_oenb_mprj[56]
*852 la_oenb_mprj[57]
*853 la_oenb_mprj[58]
*854 la_oenb_mprj[59]
*855 la_oenb_mprj[5]
*856 la_oenb_mprj[60]
*857 la_oenb_mprj[61]
*858 la_oenb_mprj[62]
*859 la_oenb_mprj[63]
*860 la_oenb_mprj[64]
*861 la_oenb_mprj[65]
*862 la_oenb_mprj[66]
*863 la_oenb_mprj[67]
*864 la_oenb_mprj[68]
*865 la_oenb_mprj[69]
*866 la_oenb_mprj[6]
*867 la_oenb_mprj[70]
*868 la_oenb_mprj[71]
*869 la_oenb_mprj[72]
*870 la_oenb_mprj[73]
*871 la_oenb_mprj[74]
*872 la_oenb_mprj[75]
*873 la_oenb_mprj[76]
*874 la_oenb_mprj[77]
*875 la_oenb_mprj[78]
*876 la_oenb_mprj[79]
*877 la_oenb_mprj[7]
*878 la_oenb_mprj[80]
*879 la_oenb_mprj[81]
*880 la_oenb_mprj[82]
*881 la_oenb_mprj[83]
*882 la_oenb_mprj[84]
*883 la_oenb_mprj[85]
*884 la_oenb_mprj[86]
*885 la_oenb_mprj[87]
*886 la_oenb_mprj[88]
*887 la_oenb_mprj[89]
*888 la_oenb_mprj[8]
*889 la_oenb_mprj[90]
*890 la_oenb_mprj[91]
*891 la_oenb_mprj[92]
*892 la_oenb_mprj[93]
*893 la_oenb_mprj[94]
*894 la_oenb_mprj[95]
*895 la_oenb_mprj[96]
*896 la_oenb_mprj[97]
*897 la_oenb_mprj[98]
*898 la_oenb_mprj[99]
*899 la_oenb_mprj[9]
*900 mprj_ack_i_core
*901 mprj_ack_i_user
*902 mprj_adr_o_core[0]
*903 mprj_adr_o_core[10]
*904 mprj_adr_o_core[11]
*905 mprj_adr_o_core[12]
*906 mprj_adr_o_core[13]
*907 mprj_adr_o_core[14]
*908 mprj_adr_o_core[15]
*909 mprj_adr_o_core[16]
*910 mprj_adr_o_core[17]
*911 mprj_adr_o_core[18]
*912 mprj_adr_o_core[19]
*913 mprj_adr_o_core[1]
*914 mprj_adr_o_core[20]
*915 mprj_adr_o_core[21]
*916 mprj_adr_o_core[22]
*917 mprj_adr_o_core[23]
*918 mprj_adr_o_core[24]
*919 mprj_adr_o_core[25]
*920 mprj_adr_o_core[26]
*921 mprj_adr_o_core[27]
*922 mprj_adr_o_core[28]
*923 mprj_adr_o_core[29]
*924 mprj_adr_o_core[2]
*925 mprj_adr_o_core[30]
*926 mprj_adr_o_core[31]
*927 mprj_adr_o_core[3]
*928 mprj_adr_o_core[4]
*929 mprj_adr_o_core[5]
*930 mprj_adr_o_core[6]
*931 mprj_adr_o_core[7]
*932 mprj_adr_o_core[8]
*933 mprj_adr_o_core[9]
*934 mprj_adr_o_user[0]
*935 mprj_adr_o_user[10]
*936 mprj_adr_o_user[11]
*937 mprj_adr_o_user[12]
*938 mprj_adr_o_user[13]
*939 mprj_adr_o_user[14]
*940 mprj_adr_o_user[15]
*941 mprj_adr_o_user[16]
*942 mprj_adr_o_user[17]
*943 mprj_adr_o_user[18]
*944 mprj_adr_o_user[19]
*945 mprj_adr_o_user[1]
*946 mprj_adr_o_user[20]
*947 mprj_adr_o_user[21]
*948 mprj_adr_o_user[22]
*949 mprj_adr_o_user[23]
*950 mprj_adr_o_user[24]
*951 mprj_adr_o_user[25]
*952 mprj_adr_o_user[26]
*953 mprj_adr_o_user[27]
*954 mprj_adr_o_user[28]
*955 mprj_adr_o_user[29]
*956 mprj_adr_o_user[2]
*957 mprj_adr_o_user[30]
*958 mprj_adr_o_user[31]
*959 mprj_adr_o_user[3]
*960 mprj_adr_o_user[4]
*961 mprj_adr_o_user[5]
*962 mprj_adr_o_user[6]
*963 mprj_adr_o_user[7]
*964 mprj_adr_o_user[8]
*965 mprj_adr_o_user[9]
*966 mprj_cyc_o_core
*967 mprj_cyc_o_user
*968 mprj_dat_i_core[0]
*969 mprj_dat_i_core[10]
*970 mprj_dat_i_core[11]
*971 mprj_dat_i_core[12]
*972 mprj_dat_i_core[13]
*973 mprj_dat_i_core[14]
*974 mprj_dat_i_core[15]
*975 mprj_dat_i_core[16]
*976 mprj_dat_i_core[17]
*977 mprj_dat_i_core[18]
*978 mprj_dat_i_core[19]
*979 mprj_dat_i_core[1]
*980 mprj_dat_i_core[20]
*981 mprj_dat_i_core[21]
*982 mprj_dat_i_core[22]
*983 mprj_dat_i_core[23]
*984 mprj_dat_i_core[24]
*985 mprj_dat_i_core[25]
*986 mprj_dat_i_core[26]
*987 mprj_dat_i_core[27]
*988 mprj_dat_i_core[28]
*989 mprj_dat_i_core[29]
*990 mprj_dat_i_core[2]
*991 mprj_dat_i_core[30]
*992 mprj_dat_i_core[31]
*993 mprj_dat_i_core[3]
*994 mprj_dat_i_core[4]
*995 mprj_dat_i_core[5]
*996 mprj_dat_i_core[6]
*997 mprj_dat_i_core[7]
*998 mprj_dat_i_core[8]
*999 mprj_dat_i_core[9]
*1000 mprj_dat_i_user[0]
*1001 mprj_dat_i_user[10]
*1002 mprj_dat_i_user[11]
*1003 mprj_dat_i_user[12]
*1004 mprj_dat_i_user[13]
*1005 mprj_dat_i_user[14]
*1006 mprj_dat_i_user[15]
*1007 mprj_dat_i_user[16]
*1008 mprj_dat_i_user[17]
*1009 mprj_dat_i_user[18]
*1010 mprj_dat_i_user[19]
*1011 mprj_dat_i_user[1]
*1012 mprj_dat_i_user[20]
*1013 mprj_dat_i_user[21]
*1014 mprj_dat_i_user[22]
*1015 mprj_dat_i_user[23]
*1016 mprj_dat_i_user[24]
*1017 mprj_dat_i_user[25]
*1018 mprj_dat_i_user[26]
*1019 mprj_dat_i_user[27]
*1020 mprj_dat_i_user[28]
*1021 mprj_dat_i_user[29]
*1022 mprj_dat_i_user[2]
*1023 mprj_dat_i_user[30]
*1024 mprj_dat_i_user[31]
*1025 mprj_dat_i_user[3]
*1026 mprj_dat_i_user[4]
*1027 mprj_dat_i_user[5]
*1028 mprj_dat_i_user[6]
*1029 mprj_dat_i_user[7]
*1030 mprj_dat_i_user[8]
*1031 mprj_dat_i_user[9]
*1032 mprj_dat_o_core[0]
*1033 mprj_dat_o_core[10]
*1034 mprj_dat_o_core[11]
*1035 mprj_dat_o_core[12]
*1036 mprj_dat_o_core[13]
*1037 mprj_dat_o_core[14]
*1038 mprj_dat_o_core[15]
*1039 mprj_dat_o_core[16]
*1040 mprj_dat_o_core[17]
*1041 mprj_dat_o_core[18]
*1042 mprj_dat_o_core[19]
*1043 mprj_dat_o_core[1]
*1044 mprj_dat_o_core[20]
*1045 mprj_dat_o_core[21]
*1046 mprj_dat_o_core[22]
*1047 mprj_dat_o_core[23]
*1048 mprj_dat_o_core[24]
*1049 mprj_dat_o_core[25]
*1050 mprj_dat_o_core[26]
*1051 mprj_dat_o_core[27]
*1052 mprj_dat_o_core[28]
*1053 mprj_dat_o_core[29]
*1054 mprj_dat_o_core[2]
*1055 mprj_dat_o_core[30]
*1056 mprj_dat_o_core[31]
*1057 mprj_dat_o_core[3]
*1058 mprj_dat_o_core[4]
*1059 mprj_dat_o_core[5]
*1060 mprj_dat_o_core[6]
*1061 mprj_dat_o_core[7]
*1062 mprj_dat_o_core[8]
*1063 mprj_dat_o_core[9]
*1064 mprj_dat_o_user[0]
*1065 mprj_dat_o_user[10]
*1066 mprj_dat_o_user[11]
*1067 mprj_dat_o_user[12]
*1068 mprj_dat_o_user[13]
*1069 mprj_dat_o_user[14]
*1070 mprj_dat_o_user[15]
*1071 mprj_dat_o_user[16]
*1072 mprj_dat_o_user[17]
*1073 mprj_dat_o_user[18]
*1074 mprj_dat_o_user[19]
*1075 mprj_dat_o_user[1]
*1076 mprj_dat_o_user[20]
*1077 mprj_dat_o_user[21]
*1078 mprj_dat_o_user[22]
*1079 mprj_dat_o_user[23]
*1080 mprj_dat_o_user[24]
*1081 mprj_dat_o_user[25]
*1082 mprj_dat_o_user[26]
*1083 mprj_dat_o_user[27]
*1084 mprj_dat_o_user[28]
*1085 mprj_dat_o_user[29]
*1086 mprj_dat_o_user[2]
*1087 mprj_dat_o_user[30]
*1088 mprj_dat_o_user[31]
*1089 mprj_dat_o_user[3]
*1090 mprj_dat_o_user[4]
*1091 mprj_dat_o_user[5]
*1092 mprj_dat_o_user[6]
*1093 mprj_dat_o_user[7]
*1094 mprj_dat_o_user[8]
*1095 mprj_dat_o_user[9]
*1096 mprj_iena_wb
*1097 mprj_sel_o_core[0]
*1098 mprj_sel_o_core[1]
*1099 mprj_sel_o_core[2]
*1100 mprj_sel_o_core[3]
*1101 mprj_sel_o_user[0]
*1102 mprj_sel_o_user[1]
*1103 mprj_sel_o_user[2]
*1104 mprj_sel_o_user[3]
*1105 mprj_stb_o_core
*1106 mprj_stb_o_user
*1107 mprj_we_o_core
*1108 mprj_we_o_user
*1109 user1_vcc_powergood
*1110 user1_vdd_powergood
*1111 user2_vcc_powergood
*1112 user2_vdd_powergood
*1113 user_clock
*1114 user_clock2
*1115 user_irq[0]
*1116 user_irq[1]
*1117 user_irq[2]
*1118 user_irq_core[0]
*1119 user_irq_core[1]
*1120 user_irq_core[2]
*1121 user_irq_ena[0]
*1122 user_irq_ena[1]
*1123 user_irq_ena[2]
*1124 user_reset
*1135 _000_
*1136 _001_
*1137 _002_
*1138 _003_
*1139 _004_
*1140 _005_
*1141 _006_
*1142 _007_
*1143 _008_
*1144 _009_
*1145 _010_
*1146 _011_
*1147 _012_
*1148 _013_
*1149 _014_
*1150 _015_
*1151 _016_
*1152 _017_
*1153 _018_
*1154 _019_
*1155 _020_
*1156 _021_
*1157 _022_
*1158 _023_
*1159 _024_
*1160 _025_
*1161 _026_
*1162 _027_
*1163 _028_
*1164 _029_
*1165 _030_
*1166 _031_
*1167 _032_
*1168 _033_
*1169 _034_
*1170 _035_
*1171 _036_
*1172 _037_
*1173 _038_
*1174 _039_
*1175 _040_
*1176 _041_
*1177 _042_
*1178 _043_
*1179 _044_
*1180 _045_
*1181 _046_
*1182 _047_
*1183 _048_
*1184 _049_
*1185 _050_
*1186 _051_
*1187 _052_
*1188 _053_
*1189 _054_
*1190 _055_
*1191 _056_
*1192 _057_
*1193 _058_
*1194 _059_
*1195 _060_
*1196 _061_
*1197 _062_
*1198 _063_
*1199 _064_
*1200 _065_
*1201 _066_
*1202 _067_
*1203 _068_
*1204 _069_
*1205 _070_
*1206 _071_
*1207 _072_
*1208 _073_
*1209 _074_
*1210 _075_
*1211 _076_
*1212 _077_
*1213 _078_
*1214 _079_
*1215 _080_
*1216 _081_
*1217 _082_
*1218 _083_
*1219 _084_
*1220 _085_
*1221 _086_
*1222 _087_
*1223 _088_
*1224 _089_
*1225 _090_
*1226 _091_
*1227 _092_
*1228 _093_
*1229 _094_
*1230 _095_
*1231 _096_
*1232 _097_
*1233 _098_
*1234 _099_
*1235 _100_
*1236 _101_
*1237 _102_
*1238 _103_
*1239 _104_
*1240 _105_
*1241 _106_
*1242 _107_
*1243 _108_
*1244 _109_
*1245 _110_
*1246 _111_
*1247 _112_
*1248 _113_
*1249 _114_
*1250 _115_
*1251 _116_
*1252 _117_
*1253 _118_
*1254 _119_
*1255 _120_
*1256 _121_
*1257 _122_
*1258 _123_
*1259 _124_
*1260 _125_
*1261 _126_
*1262 _127_
*1263 _128_
*1264 _129_
*1265 _130_
*1266 _131_
*1267 _132_
*1268 _133_
*1269 _134_
*1270 _135_
*1271 _136_
*1272 _137_
*1273 _138_
*1274 _139_
*1275 _140_
*1276 _141_
*1277 _142_
*1278 _143_
*1279 _144_
*1280 _145_
*1281 _146_
*1282 _147_
*1283 _148_
*1284 _149_
*1285 _150_
*1286 _151_
*1287 _152_
*1288 _153_
*1289 _154_
*1290 _155_
*1291 _156_
*1292 _157_
*1293 _158_
*1294 _159_
*1295 _160_
*1296 _161_
*1297 _162_
*1298 _163_
*1299 _164_
*1300 _165_
*1301 _166_
*1302 _167_
*1303 _168_
*1304 _169_
*1305 _170_
*1306 _171_
*1307 _172_
*1308 _173_
*1309 _174_
*1310 _175_
*1311 _176_
*1312 _177_
*1313 _178_
*1314 _179_
*1315 _180_
*1316 _181_
*1317 _182_
*1318 _183_
*1319 _184_
*1320 _185_
*1321 _186_
*1322 _187_
*1323 _188_
*1324 _189_
*1325 _190_
*1326 _191_
*1327 _192_
*1328 _193_
*1329 _194_
*1330 _195_
*1331 _196_
*1332 _197_
*1333 _198_
*1334 _199_
*1335 _200_
*1336 _201_
*1337 _202_
*1338 _203_
*1339 _204_
*1340 _205_
*1341 _206_
*1342 _207_
*1343 _208_
*1344 _209_
*1345 _210_
*1346 _211_
*1347 _212_