*SPEF "ieee 1481-1999"
*DESIGN "mgmt_protect_hv"
*DATE "11:11:11 Fri 11 11, 1111"
*VENDOR "OpenRCX"
*PROGRAM "Parallel Extraction"
*VERSION "1.0"
*DESIGN_FLOW "NAME_SCOPE LOCAL" "PIN_CAP NONE"
*DIVIDER /
*DELIMITER :
*BUS_DELIMITER []
*T_UNIT 1 NS
*C_UNIT 1 PF
*R_UNIT 1 OHM
*L_UNIT 1 HENRY

*NAME_MAP
*1 mprj2_vdd_logic1
*2 mprj_vdd_logic1
*9 mprj2_vdd_logic1_h
*10 mprj_vdd_logic1_h

*PORTS
mprj2_vdd_logic1 O
mprj_vdd_logic1 O

*D_NET *1 0.00894054
*CONN
*P mprj2_vdd_logic1 O
*CAP
1 mprj2_vdd_logic1 0.000164685
2 *1:17 0.000136495
3 *1:11 0.00430558
4 *1:10 0.00433377
5 *1:11 *2:11 0
*RES
1 mprj2_vdd_logic1 *1:10 10.6698 
2 *1:10 *1:11 104.917 
3 *1:11 *1:17 21.1315 
*END

*D_NET *2 0.005901
*CONN
*P mprj_vdd_logic1 O
*CAP
1 mprj_vdd_logic1 0.000279428
2 *2:13 0
3 *2:11 0.00263509
4 *2:10 0.00291451
5 *2:11 *9:13 7.19686e-05
6 *1:11 *2:11 0
*RES
1 mprj_vdd_logic1 *2:10 14.285 
2 *2:10 *2:11 63.2489 
3 *2:11 *2:13 9.24915 
*END

*D_NET *9 0.00399736
*CONN
*CAP
1 *9:30 0
2 *9:29 0
3 *9:26 0
4 *9:25 0
5 *9:22 0
6 *9:21 0
7 *9:18 0
8 *9:17 0
9 *9:13 0.00174996
10 *9:12 0.00174996
11 *9:8 6.4106e-05
12 *9:7 6.4106e-05
13 *9:3 0.000125875
14 *9:2 0.000125875
15 *9:3 *10:3 4.55186e-05
16 *2:11 *9:13 7.19686e-05
*RES
1 *9:2 *9:3 2.88234 
2 *9:7 *9:8 1.32623 
3 *9:12 *9:13 42.9938 
4 *9:17 *9:18 4.5 
5 *9:21 *9:22 4.5 
6 *9:25 *9:26 9.24915 
7 *9:29 *9:30 9.24915 
*END

*D_NET *10 0.0037119
*CONN
*CAP
1 *10:28 0
2 *10:25 0
3 *10:24 0
4 *10:21 0
5 *10:20 0
6 *10:17 0
7 *10:16 0
8 *10:13 0
9 *10:12 0
10 *10:8 0.00172779
11 *10:7 0.00172779
12 *10:3 0.0001054
13 *10:2 0.0001054
14 *9:3 *10:3 4.55186e-05
*RES
1 *10:2 *10:3 2.43045 
2 *10:7 *10:8 38.9428 
3 *10:12 *10:13 9.24915 
4 *10:16 *10:17 4.5 
5 *10:20 *10:21 4.5 
6 *10:24 *10:25 9.24915 
*END
