*SPEF "ieee 1481-1999"
*DESIGN "xres_buf"
*DATE "11:11:11 Fri 11 11, 1111"
*VENDOR "OpenRCX"
*PROGRAM "Parallel Extraction"
*VERSION "1.0"
*DESIGN_FLOW "NAME_SCOPE LOCAL" "PIN_CAP NONE"
*DIVIDER /
*DELIMITER :
*BUS_DELIMITER []
*T_UNIT 1 NS
*C_UNIT 1 PF
*R_UNIT 1 OHM
*L_UNIT 1 HENRY

*NAME_MAP
*1 A
*2 X

*PORTS
A I
X O

*D_NET *1 0.000990495
*CONN
*P A I
*CAP
1 A 0.000411399
2 *1:19 0
3 *1:16 8.38483e-05
4 *1:12 0.000495247
*RES
1 A *1:12 14.3355 
2 *1:12 *1:16 11.1541 
3 *1:12 *1:19 9.24915 
*END

*D_NET *2 0.00147572
*CONN
*P X O
*CAP
1 X 0.00073786
2 *2:10 0.00073786
*RES
1 X *2:10 32.9072 
*END
