*SPEF "ieee 1481-1999"
*DESIGN "xres_buf"
*DATE "11:11:11 Fri 11 11, 1111"
*VENDOR "OpenRCX"
*PROGRAM "Parallel Extraction"
*VERSION "1.0"
*DESIGN_FLOW "NAME_SCOPE LOCAL" "PIN_CAP NONE"
*DIVIDER /
*DELIMITER :
*BUS_DELIMITER []
*T_UNIT 1 NS
*C_UNIT 1 PF
*R_UNIT 1 OHM
*L_UNIT 1 HENRY

*NAME_MAP
*1 A
*2 X
*3 lvlshiftdown
*4 ANTENNA_lvlshiftdown_A
*5 FILLER_0_0
*6 FILLER_0_8
*7 FILLER_0_16
*8 FILLER_0_24
*9 FILLER_0_28
*10 FILLER_0_30
*11 FILLER_1_0
*12 FILLER_1_8
*13 FILLER_1_12
*14 FILLER_1_30
*15 FILLER_2_0
*16 FILLER_2_8
*17 FILLER_2_10
*18 FILLER_2_30

*PORTS
A I
X O

*D_NET *1 0.000990495
*CONN
*P A I
*I *3:A I *D sky130_fd_sc_hvl__lsbufhv2lv_1
*I *4:DIODE I *D sky130_fd_sc_hvl__diode_2
*CAP
1 A 0.000411399
2 *3:A 0
3 *4:DIODE 8.38483e-05
4 *1:12 0.000495247
*RES
1 A *1:12 14.3355 
2 *1:12 *4:DIODE 11.1541 
3 *1:12 *3:A 9.24915 
*END

*D_NET *2 0.00147572
*CONN
*P X O
*I *3:X O *D sky130_fd_sc_hvl__lsbufhv2lv_1
*CAP
1 X 0.00073786
2 *3:X 0.00073786
*RES
1 *3:X X 32.9072 
*END
