*SPEF "ieee 1481-1999"
*DESIGN "gpio_control_block"
*DATE "11:11:11 Fri 11 11, 1111"
*VENDOR "OpenRCX"
*PROGRAM "Parallel Extraction"
*VERSION "1.0"
*DESIGN_FLOW "NAME_SCOPE LOCAL" "PIN_CAP NONE"
*DIVIDER /
*DELIMITER :
*BUS_DELIMITER []
*T_UNIT 1 NS
*C_UNIT 1 PF
*R_UNIT 1 OHM
*L_UNIT 1 HENRY

*NAME_MAP
*1 gpio_defaults[0]
*2 gpio_defaults[10]
*3 gpio_defaults[11]
*4 gpio_defaults[12]
*5 gpio_defaults[1]
*6 gpio_defaults[2]
*7 gpio_defaults[3]
*8 gpio_defaults[4]
*9 gpio_defaults[5]
*10 gpio_defaults[6]
*11 gpio_defaults[7]
*12 gpio_defaults[8]
*13 gpio_defaults[9]
*14 mgmt_gpio_in
*15 mgmt_gpio_oeb
*16 mgmt_gpio_out
*17 one
*18 pad_gpio_ana_en
*19 pad_gpio_ana_pol
*20 pad_gpio_ana_sel
*21 pad_gpio_dm[0]
*22 pad_gpio_dm[1]
*23 pad_gpio_dm[2]
*24 pad_gpio_holdover
*25 pad_gpio_ib_mode_sel
*26 pad_gpio_in
*27 pad_gpio_inenb
*28 pad_gpio_out
*29 pad_gpio_outenb
*30 pad_gpio_slow_sel
*31 pad_gpio_vtrip_sel
*32 resetn
*33 resetn_out
*34 serial_clock
*35 serial_clock_out
*36 serial_data_in
*37 serial_data_out
*38 serial_load
*39 serial_load_out
*40 user_gpio_in
*41 user_gpio_oeb
*42 user_gpio_out
*47 zero
*48 _000_
*49 _001_
*50 _002_
*51 _003_
*52 _004_
*53 _005_
*54 _006_
*55 _007_
*56 _008_
*57 _009_
*58 _010_
*59 _011_
*60 _012_
*61 _013_
*62 _014_
*63 _015_
*64 _016_
*65 _017_
*66 _018_
*67 _019_
*68 _020_
*69 _021_
*70 _022_
*71 _023_
*72 _024_
*73 _025_
*74 _026_
*75 _041_
*76 _042_
*77 _043_
*78 _044_
*79 _045_
*80 _046_
*81 _047_
*82 _048_
*83 _049_
*84 _050_
*85 _051_
*86 _052_
*87 _053_
*88 _054_
*89 _055_
*90 _056_
*91 _057_
*92 clknet_0_serial_clock
*93 clknet_0_serial_load
*94 clknet_1_0__leaf_serial_clock
*95 clknet_1_0__leaf_serial_load
*96 clknet_1_1__leaf_serial_clock
*97 clknet_1_1__leaf_serial_load
*98 gpio_logic1
*99 gpio_outenb
*100 mgmt_ena
*101 net1
*102 net10
*103 net11
*104 net12
*105 net13
*106 net14
*107 net15
*108 net16
*109 net17
*110 net18
*111 net19
*112 net2
*113 net20
*114 net21
*115 net22
*116 net23
*117 net24
*118 net25
*119 net26
*120 net27
*121 net28
*122 net29
*123 net3
*124 net30
*125 net31
*126 net32
*127 net33
*128 net34
*129 net35
*130 net36
*131 net37
*132 net38
*133 net39
*134 net4
*135 net40
*136 net41
*137 net42
*138 net43
*139 net44
*140 net45
*141 net46
*142 net47
*143 net48
*144 net49
*145 net5
*146 net50
*147 net51
*148 net52
*149 net53
*150 net54
*151 net55
*152 net56
*153 net57
*154 net58
*155 net59
*156 net6
*157 net60
*158 net61
*159 net62
*160 net63
*161 net64
*162 net65
*163 net66
*164 net67
*165 net68
*166 net69
*167 net7
*168 net70
*169 net71
*170 net72
*171 net73
*172 net74
*173 net8
*174 net9
*175 one_buffered
*176 serial_clock_out_buffered
*177 serial_load_out_buffered
*178 shift_register\[0\]
*179 shift_register\[10\]
*180 shift_register\[11\]
*181 shift_register\[12\]
*182 shift_register\[1\]
*183 shift_register\[2\]
*184 shift_register\[3\]
*185 shift_register\[4\]
*186 shift_register\[5\]
*187 shift_register\[6\]
*188 shift_register\[7\]
*189 shift_register\[8\]
*190 shift_register\[9\]
*191 zero_buffered
*192 ANTENNA__069__A_N
*193 ANTENNA__070__A
*194 ANTENNA__071__A_N
*195 ANTENNA__076__A
*196 ANTENNA__077__A_N
*197 ANTENNA__080__A
*198 ANTENNA__081__A_N
*199 ANTENNA__086__B
*200 ANTENNA__087__B
*201 ANTENNA__119__RESET_B
*202 ANTENNA__120__RESET_B
*203 ANTENNA__121__RESET_B
*204 ANTENNA__122__RESET_B
*205 ANTENNA_clkbuf_0_serial_clock_A
*206 ANTENNA_clkbuf_0_serial_load_A
*207 ANTENNA_fanout42_A
*208 ANTENNA_input10_A
*209 ANTENNA_input11_A
*210 ANTENNA_input12_A
*211 ANTENNA_input13_A
*212 ANTENNA_input14_A
*213 ANTENNA_input15_A
*214 ANTENNA_input16_A
*215 ANTENNA_input17_A
*216 ANTENNA_input18_A
*217 ANTENNA_input19_A
*218 ANTENNA_input1_A
*219 ANTENNA_input20_A
*220 ANTENNA_input2_A
*221 ANTENNA_input3_A
*222 ANTENNA_input4_A
*223 ANTENNA_input5_A
*224 ANTENNA_input6_A
*225 ANTENNA_input7_A
*226 ANTENNA_input8_A
*227 ANTENNA_input9_A
*228 FILLER_0_29
*229 FILLER_0_3
*230 FILLER_0_61
*231 FILLER_0_87
*232 FILLER_0_92
*233 FILLER_0_99
*234 FILLER_10_3
*235 FILLER_11_3
*236 FILLER_13_3
*237 FILLER_13_99
*238 FILLER_14_3
*239 FILLER_16_3
*240 FILLER_16_60
*241 FILLER_17_3
*242 FILLER_17_57
*243 FILLER_17_99
*244 FILLER_1_30
*245 FILLER_1_99
*246 FILLER_3_99
*247 FILLER_4_50
*248 FILLER_5_84
*249 FILLER_9_3
*250 PHY_0
*251 PHY_1
*252 PHY_10
*253 PHY_11
*254 PHY_12
*255 PHY_13
*256 PHY_14
*257 PHY_15
*258 PHY_16
*259 PHY_17
*260 PHY_18
*261 PHY_19
*262 PHY_2
*263 PHY_20
*264 PHY_21
*265 PHY_22
*266 PHY_23
*267 PHY_24
*268 PHY_25
*269 PHY_26
*270 PHY_27
*271 PHY_28
*272 PHY_29
*273 PHY_3
*274 PHY_30
*275 PHY_31
*276 PHY_32
*277 PHY_33
*278 PHY_34
*279 PHY_35
*280 PHY_36
*281 PHY_37
*282 PHY_38
*283 PHY_39
*284 PHY_4
*285 PHY_40
*286 PHY_41
*287 PHY_5
*288 PHY_6
*289 PHY_7
*290 PHY_8
*291 PHY_9
*292 TAP_42
*293 TAP_43
*294 TAP_44
*295 TAP_45
*296 TAP_46
*297 TAP_47
*298 TAP_48
*299 TAP_49
*300 TAP_50
*301 TAP_51
*302 TAP_52
*303 TAP_53
*304 TAP_54
*305 TAP_55
*306 TAP_56
*307 TAP_57
*308 TAP_58
*309 TAP_59
*310 TAP_60
*311 TAP_61
*312 TAP_62
*313 TAP_63
*314 TAP_64
*315 TAP_65
*316 TAP_66
*317 TAP_67
*318 TAP_68
*319 TAP_69
*320 TAP_70
*321 TAP_71
*322 TAP_72
*323 TAP_73
*324 _058__1
*325 _059__14
*326 _060_
*327 _061_
*328 _062_
*329 _063_
*330 _064_
*331 _065_
*332 _066_
*333 _067_
*334 _068_
*335 _069_
*336 _070_
*337 _071_
*338 _072_
*339 _073_
*340 _074_
*341 _075_
*342 _076_
*343 _077_
*344 _078_
*345 _079_
*346 _080_
*347 _081_
*348 _082_
*349 _083_
*350 _084_
*351 _085_
*352 _086_
*353 _087_
*354 _088_
*355 _089_
*356 _090_
*357 _091_
*358 _092_
*359 _093_
*360 _094__2
*361 _095__3
*362 _096__4
*363 _097__5
*364 _098__6
*365 _099__7
*366 _100__8
*367 _101__9
*368 _102__10
*369 _103__11
*370 _104__12
*371 _105__13
*372 _106_
*373 _107_
*374 _108_
*375 _109_
*376 _110_
*377 _111_
*378 _112_
*379 _113_
*380 _114_
*381 _115_
*382 _116_
*383 _117_
*384 _118_
*385 _119_
*386 _120_
*387 _121_
*388 _122_
*389 _123_
*390 _124_
*391 _125_
*392 _126_
*393 _127_
*394 _128_
*395 _129_
*396 _130_
*397 _131_
*398 _132_
*399 _133_
*400 _134_
*401 _135_
*402 _136_
*403 clkbuf_0_serial_clock
*404 clkbuf_0_serial_load
*405 clkbuf_1_0__f_serial_clock
*406 clkbuf_1_0__f_serial_load
*407 clkbuf_1_1__f_serial_clock
*408 clkbuf_1_1__f_serial_load
*409 const_source
*410 fanout40
*411 fanout41
*412 fanout42
*413 fanout43
*414 fanout44
*415 fanout45
*416 fanout46
*417 fanout47
*418 gpio_logic_high
*419 hold1
*420 hold10
*421 hold11
*422 hold12
*423 hold13
*424 hold2
*425 hold3
*426 hold4
*427 hold5
*428 hold6
*429 hold7
*430 hold8
*431 hold9
*432 input1
*433 input10
*434 input11
*435 input12
*436 input13
*437 input14
*438 input15
*439 input16
*440 input17
*441 input18
*442 input19
*443 input2
*444 input20
*445 input3
*446 input4
*447 input5
*448 input6
*449 input7
*450 input8
*451 input9
*452 one_buffer
*453 output21
*454 output22
*455 output23
*456 output24
*457 output25
*458 output26
*459 output27
*460 output28
*461 output29
*462 output30
*463 output31
*464 output32
*465 output33
*466 output34
*467 output35
*468 output36
*469 output37
*470 output38
*471 output39
*472 serial_clock_out_buffer
*473 serial_load_out_buffer
*474 spare_cell
*475 zero_buffer

*PORTS
gpio_defaults[0] I
gpio_defaults[10] I
gpio_defaults[11] I
gpio_defaults[12] I
gpio_defaults[1] I
gpio_defaults[2] I
gpio_defaults[3] I
gpio_defaults[4] I
gpio_defaults[5] I
gpio_defaults[6] I
gpio_defaults[7] I
gpio_defaults[8] I
gpio_defaults[9] I
mgmt_gpio_in O
mgmt_gpio_oeb I
mgmt_gpio_out I
one O
pad_gpio_ana_en O
pad_gpio_ana_pol O
pad_gpio_ana_sel O
pad_gpio_dm[0] O
pad_gpio_dm[1] O
pad_gpio_dm[2] O
pad_gpio_holdover O
pad_gpio_ib_mode_sel O
pad_gpio_in I
pad_gpio_inenb O
pad_gpio_out O
pad_gpio_outenb O
pad_gpio_slow_sel O
pad_gpio_vtrip_sel O
resetn I
resetn_out O
serial_clock I
serial_clock_out O
serial_data_in I
serial_data_out O
serial_load I
serial_load_out O
user_gpio_in O
user_gpio_oeb I
user_gpio_out I
zero O

*D_NET *1 0.00767469
*CONN
*P gpio_defaults[0] I
*I *432:A I *D sky130_fd_sc_hd__clkbuf_2
*I *218:DIODE I *D sky130_fd_sc_hd__diode_2
*CAP
1 gpio_defaults[0] 0.00242816
2 *432:A 7.65167e-05
3 *218:DIODE 8.2543e-05
4 *1:12 0.000747734
5 *1:9 0.00301684
6 *218:DIODE *194:DIODE 7.33283e-05
7 *218:DIODE *226:DIODE 1.38207e-05
8 *218:DIODE *138:29 0.000112714
9 *432:A *226:DIODE 3.57348e-05
10 *432:A *417:A 8.35157e-05
11 *432:A *138:29 9.10613e-05
12 *1:12 *417:A 1.3849e-05
13 *1:12 *145:11 0.000898872
*RES
1 gpio_defaults[0] *1:9 46.025 
2 *1:9 *1:12 14.18 
3 *1:12 *218:DIODE 5.745 
4 *1:12 *432:A 5.52 
*END

*D_NET *2 0.0113523
*CONN
*P gpio_defaults[10] I
*I *220:DIODE I *D sky130_fd_sc_hd__diode_2
*I *443:A I *D sky130_fd_sc_hd__clkbuf_2
*CAP
1 gpio_defaults[10] 0.000832345
2 *220:DIODE 0.000757754
3 *443:A 0.00110235
4 *2:13 0.00269245
5 *220:DIODE *327:A0 0.000161931
6 *220:DIODE *331:A1 4.88478e-05
7 *220:DIODE *331:A2 2.62017e-05
8 *220:DIODE *332:A2 3.88789e-05
9 *220:DIODE *383:RESET_B 4.76564e-05
10 *220:DIODE *457:A 8.41015e-06
11 *220:DIODE *112:11 0.00082096
12 *443:A *225:DIODE 1.9488e-05
13 *443:A *327:A0 0.000221747
14 *443:A *112:11 0.00162493
15 *443:A *173:8 2.28638e-05
16 *2:13 *352:A 0.000139532
17 *2:13 *372:CLK_N 6.14227e-05
18 *2:13 *376:CLK_N 1.07294e-05
19 *2:13 *376:RESET_B 0.00048984
20 *2:13 *398:RESET_B 0.000313578
21 *2:13 *400:A 3.98126e-05
22 *2:13 *461:A 0.000299432
23 *2:13 *471:A 0.000131687
24 *2:13 *3:22 0.000179629
25 *2:13 *4:15 0
26 *2:13 *13:15 0
27 *2:13 *31:11 0.000272694
28 *2:13 *137:79 1.7635e-05
29 *2:13 *137:99 0.000183185
30 *2:13 *156:21 0.000786283
*RES
1 gpio_defaults[10] *2:13 24.6875 
2 *2:13 *443:A 8.0425 
3 *2:13 *220:DIODE 9.26563 
*END

*D_NET *3 0.00693888
*CONN
*P gpio_defaults[11] I
*I *221:DIODE I *D sky130_fd_sc_hd__diode_2
*I *445:A I *D sky130_fd_sc_hd__clkbuf_2
*CAP
1 gpio_defaults[11] 0.0010557
2 *221:DIODE 0.000335989
3 *445:A 0
4 *3:22 0.00139169
5 *221:DIODE *327:A1 0.000119247
6 *221:DIODE *28:14 0.000238121
7 *3:22 *335:B 7.01662e-05
8 *3:22 *338:B 0.000444638
9 *3:22 *372:CLK_N 0.000651898
10 *3:22 *404:A 0.000154986
11 *3:22 *420:A 5.88634e-05
12 *3:22 *463:A 8.7152e-06
13 *3:22 *464:A 0.000298038
14 *3:22 *465:A 0.000131883
15 *3:22 *471:A 0.000130106
16 *3:22 *4:15 0
17 *3:22 *28:14 7.12025e-05
18 *3:22 *39:23 0.000540513
19 *3:22 *105:28 0.000114869
20 *3:22 *138:108 8.64427e-05
21 *3:22 *139:32 2.68402e-05
22 *3:22 *139:35 8.41307e-05
23 *3:22 *156:21 0.000745213
24 *2:13 *3:22 0.000179629
*RES
1 gpio_defaults[11] *3:22 36.285 
2 *3:22 *445:A 1.6 
3 *3:22 *221:DIODE 7.48 
*END

*D_NET *4 0.0185207
*CONN
*P gpio_defaults[12] I
*I *222:DIODE I *D sky130_fd_sc_hd__diode_2
*I *446:A I *D sky130_fd_sc_hd__clkbuf_2
*CAP
1 gpio_defaults[12] 0.00476535
2 *222:DIODE 0.000486428
3 *446:A 0.00233487
4 *4:15 0.00758665
5 *222:DIODE *207:DIODE 0
6 *222:DIODE *453:A 3.75754e-05
7 *222:DIODE *475:A 4.61701e-06
8 *446:A *440:A 0.000103976
9 *446:A *442:A 0.000293118
10 *446:A *470:A 1.25098e-05
11 *446:A *134:15 0.00013938
12 *446:A *134:21 0.000140931
13 *446:A *138:35 0.000109811
14 *4:15 *335:B 4.61701e-06
15 *4:15 *342:B 6.90972e-05
16 *4:15 *348:B 0.000110089
17 *4:15 *372:SET_B 3.34515e-05
18 *4:15 *379:SET_B 0.000116399
19 *4:15 *381:D 8.978e-05
20 *4:15 *386:D 0.00014357
21 *4:15 *394:D 9.10613e-05
22 *4:15 *398:CLK 0.000110791
23 *4:15 *426:A 0.000493987
24 *4:15 *457:A 0.000104095
25 *4:15 *33:29 9.36928e-05
26 *4:15 *134:42 0.00100645
27 *4:15 *137:162 0
28 *4:15 *138:108 0
29 *4:15 *170:8 3.83889e-05
30 *2:13 *4:15 0
31 *3:22 *4:15 0
*RES
1 gpio_defaults[12] *4:15 20.6764 
2 *4:15 *446:A 8.0341 
3 *4:15 *222:DIODE 5.12077 
*END

*D_NET *5 0.0102434
*CONN
*P gpio_defaults[1] I
*I *447:A I *D sky130_fd_sc_hd__clkbuf_2
*I *223:DIODE I *D sky130_fd_sc_hd__diode_2
*CAP
1 gpio_defaults[1] 0.00152691
2 *447:A 0
3 *223:DIODE 0.000381918
4 *5:21 0.0011015
5 *5:14 0.00224649
6 *223:DIODE *378:CLK_N 1.11025e-05
7 *223:DIODE *95:26 1.38283e-05
8 *223:DIODE *95:48 0
9 *223:DIODE *144:19 0.000135352
10 *223:DIODE *145:11 0.000577745
11 *5:14 *225:DIODE 0
12 *5:14 *337:B 0.000134756
13 *5:14 *344:B 7.23237e-05
14 *5:14 *346:B 0
15 *5:14 *347:A_N 0.000113763
16 *5:14 *355:A_N 0
17 *5:14 *378:SET_B 3.89366e-05
18 *5:14 *381:RESET_B 1.00941e-05
19 *5:14 *385:CLK 5.69806e-05
20 *5:14 *389:RESET_B 0.000102962
21 *5:14 *473:A 0.000669642
22 *5:14 *6:21 0
23 *5:14 *94:88 1.37112e-05
24 *5:14 *110:23 0.00026459
25 *5:14 *136:84 0.000486226
26 *5:14 *137:123 7.58382e-05
27 *5:14 *138:20 0
28 *5:14 *142:15 7.60181e-05
29 *5:14 *145:12 0.000158984
30 *5:14 *173:8 0.000462549
31 *5:21 *377:CLK_N 0.000694688
32 *5:21 *401:A 2.38082e-05
33 *5:21 *436:A 0.000384277
34 *5:21 *468:A 7.19235e-05
35 *5:21 *10:22 6.52678e-05
36 *5:21 *94:34 0
37 *5:21 *144:19 1.0145e-05
38 *5:21 *174:16 0.000261075
*RES
1 gpio_defaults[1] *5:14 41.77 
2 *5:14 *5:21 10.4787 
3 *5:21 *223:DIODE 10.485 
4 *5:21 *447:A 3.6 
*END

*D_NET *6 0.0105967
*CONN
*P gpio_defaults[2] I
*I *448:A I *D sky130_fd_sc_hd__clkbuf_2
*I *224:DIODE I *D sky130_fd_sc_hd__diode_2
*CAP
1 gpio_defaults[2] 0.00273901
2 *448:A 0
3 *224:DIODE 0.000194853
4 *6:21 0.00293386
5 *224:DIODE *441:A 8.90199e-05
6 *224:DIODE *17:13 5.79947e-05
7 *224:DIODE *102:18 0.000143067
8 *224:DIODE *137:30 4.89362e-05
9 *6:21 *225:DIODE 0.000869808
10 *6:21 *327:A0 4.92447e-05
11 *6:21 *333:A 0
12 *6:21 *356:B 1.72668e-05
13 *6:21 *357:B 6.0994e-05
14 *6:21 *372:CLK_N 9.53681e-05
15 *6:21 *384:CLK_N 1.00056e-05
16 *6:21 *385:CLK 7.96409e-05
17 *6:21 *385:D 0.000457314
18 *6:21 *387:D 1.81196e-05
19 *6:21 *389:D 3.55372e-05
20 *6:21 *392:RESET_B 5.18556e-05
21 *6:21 *394:D 0.000114016
22 *6:21 *397:D 0.000195585
23 *6:21 *402:A 0.000162177
24 *6:21 *427:A 0.000143864
25 *6:21 *454:A 0
26 *6:21 *467:A 0.000113222
27 *6:21 *470:A 0.000121946
28 *6:21 *7:12 0
29 *6:21 *102:18 0.00036288
30 *6:21 *136:54 0
31 *6:21 *138:20 0.000216205
32 *6:21 *138:94 0.00111444
33 *6:21 *159:10 0.000100507
34 *5:14 *6:21 0
*RES
1 gpio_defaults[2] *6:21 43.9317 
2 *6:21 *224:DIODE 7.47 
3 *6:21 *448:A 3.6 
*END

*D_NET *7 0.00930036
*CONN
*P gpio_defaults[3] I
*I *225:DIODE I *D sky130_fd_sc_hd__diode_2
*I *449:A I *D sky130_fd_sc_hd__clkbuf_2
*CAP
1 gpio_defaults[3] 0.000928801
2 *225:DIODE 0.00101199
3 *449:A 6.71321e-05
4 *7:12 0.00200793
5 *225:DIODE *194:DIODE 0.000119873
6 *225:DIODE *327:A0 0.000874918
7 *225:DIODE *391:CLK 5.0096e-05
8 *225:DIODE *402:A 0.000366818
9 *225:DIODE *413:A 0.000128684
10 *225:DIODE *417:A 0.000146983
11 *225:DIODE *470:A 0.000215254
12 *225:DIODE *95:15 0.00013488
13 *225:DIODE *112:11 1.47419e-05
14 *225:DIODE *138:20 0.000109354
15 *225:DIODE *138:29 5.83121e-06
16 *225:DIODE *142:8 0.000439704
17 *225:DIODE *145:11 0.000123505
18 *449:A *344:B 1.74678e-05
19 *449:A *408:A 4.66108e-05
20 *449:A *167:15 0.000119873
21 *7:12 *385:D 0
22 *7:12 *389:D 1.25098e-05
23 *7:12 *408:A 0.000253102
24 *7:12 *470:A 0.000426216
25 *7:12 *8:7 0
26 *7:12 *94:85 4.46808e-07
27 *7:12 *110:23 8.38046e-05
28 *7:12 *135:16 0.000119272
29 *7:12 *138:94 0.000132192
30 *7:12 *138:108 0.000190263
31 *7:12 *167:15 0.000262813
32 *443:A *225:DIODE 1.9488e-05
33 *5:14 *225:DIODE 0
34 *6:21 *225:DIODE 0.000869808
35 *6:21 *7:12 0
*RES
1 gpio_defaults[3] *7:12 21.32 
2 *7:12 *449:A 3.085 
3 *7:12 *225:DIODE 40.875 
*END

*D_NET *8 0.00929401
*CONN
*P gpio_defaults[4] I
*I *450:A I *D sky130_fd_sc_hd__clkbuf_2
*I *226:DIODE I *D sky130_fd_sc_hd__diode_2
*CAP
1 gpio_defaults[4] 0.00100334
2 *450:A 0.00032786
3 *226:DIODE 0.000583593
4 *8:7 0.0019148
5 *226:DIODE *194:DIODE 0.000134756
6 *226:DIODE *355:A_N 0.000156916
7 *226:DIODE *417:A 7.9044e-05
8 *226:DIODE *428:A 0.000599963
9 *226:DIODE *429:A 2.87464e-05
10 *226:DIODE *10:22 0.000317678
11 *226:DIODE *110:23 0.000574807
12 *226:DIODE *134:15 4.89362e-05
13 *226:DIODE *138:20 5.43399e-05
14 *226:DIODE *142:8 4.19285e-05
15 *450:A *391:CLK 0.000126208
16 *450:A *391:D 0.000166054
17 *450:A *94:24 0.000209302
18 *8:7 *325:A 0.000853751
19 *8:7 *355:A_N 6.4428e-05
20 *8:7 *390:RESET_B 3.82072e-05
21 *8:7 *428:A 0.000868718
22 *8:7 *9:22 0.000276655
23 *8:7 *92:8 9.93404e-06
24 *8:7 *135:16 8.36802e-05
25 *8:7 *135:26 1.17614e-05
26 *8:7 *135:30 7.93729e-05
27 *8:7 *137:113 0.000262104
28 *8:7 *137:144 6.90254e-05
29 *8:7 *138:94 0
30 *8:7 *138:108 0
31 *8:7 *164:10 0.000258546
32 *218:DIODE *226:DIODE 1.38207e-05
33 *432:A *226:DIODE 3.57348e-05
34 *7:12 *8:7 0
*RES
1 gpio_defaults[4] *8:7 26.31 
2 *8:7 *226:DIODE 22.05 
3 *8:7 *450:A 11.01 
*END

*D_NET *9 0.0112475
*CONN
*P gpio_defaults[5] I
*I *451:A I *D sky130_fd_sc_hd__clkbuf_2
*I *227:DIODE I *D sky130_fd_sc_hd__diode_2
*CAP
1 gpio_defaults[5] 0.0010601
2 *451:A 2.89988e-05
3 *227:DIODE 0.000322929
4 *9:23 0.000824865
5 *9:22 0.00153303
6 *227:DIODE *371:A 4.77769e-05
7 *227:DIODE *384:CLK_N 8.35106e-05
8 *227:DIODE *456:A 0.000129343
9 *227:DIODE *17:13 0.000172483
10 *227:DIODE *101:19 0.000426048
11 *227:DIODE *156:21 0.000282613
12 *451:A *97:49 4.66108e-05
13 *9:22 *337:B 0.000116986
14 *9:22 *376:CLK_N 0.000147163
15 *9:22 *376:D 0.000154981
16 *9:22 *378:CLK_N 0.000192509
17 *9:22 *398:CLK 6.11616e-05
18 *9:22 *404:A 0.000222882
19 *9:22 *467:A 0.000313537
20 *9:22 *10:22 0.000144378
21 *9:22 *33:29 3.83194e-05
22 *9:22 *34:37 2.43962e-05
23 *9:22 *135:16 0.000276307
24 *9:22 *162:8 0.000918538
25 *9:22 *167:15 0.000467792
26 *9:23 *339:B 0.000150131
27 *9:23 *380:CLK_N 5.58485e-05
28 *9:23 *381:D 0.000233964
29 *9:23 *101:19 0.00116186
30 *9:23 *104:8 0.000933262
31 *9:23 *156:21 0.000398556
32 *8:7 *9:22 0.000276655
*RES
1 gpio_defaults[5] *9:22 34.925 
2 *9:22 *9:23 18.21 
3 *9:23 *227:DIODE 12.825 
4 *9:23 *451:A 4.05 
*END

*D_NET *10 0.00969392
*CONN
*P gpio_defaults[6] I
*I *208:DIODE I *D sky130_fd_sc_hd__diode_2
*I *433:A I *D sky130_fd_sc_hd__clkbuf_2
*CAP
1 gpio_defaults[6] 0.00176449
2 *208:DIODE 0.000341277
3 *433:A 8.64822e-05
4 *10:22 0.00219225
5 *208:DIODE *377:CLK_N 7.90944e-05
6 *208:DIODE *401:A 0
7 *208:DIODE *103:12 5.8166e-05
8 *208:DIODE *105:27 3.53881e-05
9 *433:A *434:A 5.06989e-05
10 *433:A *102:18 9.03508e-06
11 *433:A *110:23 0.000199594
12 *10:22 *337:B 0.000212254
13 *10:22 *354:B 0.000173317
14 *10:22 *357:A_N 7.26096e-05
15 *10:22 *361:A 0.000327405
16 *10:22 *373:D 0.000160418
17 *10:22 *376:D 0.000151106
18 *10:22 *377:CLK_N 3.43449e-05
19 *10:22 *382:D 0.000267851
20 *10:22 *387:RESET_B 4.1235e-05
21 *10:22 *390:D 0.000348784
22 *10:22 *397:D 1.87328e-05
23 *10:22 *428:A 3.21772e-05
24 *10:22 *429:A 5.9934e-05
25 *10:22 *434:A 9.03508e-06
26 *10:22 *11:11 0
27 *10:22 *93:21 0.000101819
28 *10:22 *94:32 5.40863e-05
29 *10:22 *94:34 4.0238e-05
30 *10:22 *96:27 1.16981e-05
31 *10:22 *97:24 0.000102503
32 *10:22 *110:23 0.000147748
33 *10:22 *136:54 9.66935e-05
34 *10:22 *136:73 0.0002779
35 *10:22 *137:147 0.000333322
36 *10:22 *137:162 0.000144313
37 *10:22 *138:29 2.54415e-05
38 *10:22 *160:8 0.000340001
39 *10:22 *162:8 0.000205855
40 *10:22 *167:15 0.000170901
41 *10:22 *174:16 0.000388397
42 *226:DIODE *10:22 0.000317678
43 *5:21 *10:22 6.52678e-05
44 *9:22 *10:22 0.000144378
*RES
1 gpio_defaults[6] *10:22 49.8825 
2 *10:22 *433:A 4.0375 
3 *10:22 *208:DIODE 11.315 
*END

*D_NET *11 0.00905149
*CONN
*P gpio_defaults[7] I
*I *209:DIODE I *D sky130_fd_sc_hd__diode_2
*I *434:A I *D sky130_fd_sc_hd__clkbuf_2
*CAP
1 gpio_defaults[7] 0.00132366
2 *209:DIODE 0.000340751
3 *434:A 0.00012248
4 *11:11 0.00178689
5 *209:DIODE *211:DIODE 8.64566e-05
6 *209:DIODE *401:A 0.000213863
7 *209:DIODE *137:52 0.000390641
8 *434:A *386:CLK 0
9 *434:A *401:A 5.45174e-05
10 *11:11 *205:DIODE 2.89439e-05
11 *11:11 *342:B 1.05735e-05
12 *11:11 *357:A_N 0.000198174
13 *11:11 *373:SET_B 0.00015348
14 *11:11 *377:SET_B 0.00015897
15 *11:11 *378:CLK_N 0.000297063
16 *11:11 *378:D 0.0001409
17 *11:11 *378:SET_B 0.000140315
18 *11:11 *382:CLK_N 5.69216e-05
19 *11:11 *383:CLK_N 0.000275502
20 *11:11 *386:CLK 1.87841e-05
21 *11:11 *397:RESET_B 0.000153795
22 *11:11 *401:A 5.41038e-05
23 *11:11 *472:A 0.00194896
24 *11:11 *12:21 0.000296665
25 *11:11 *93:21 3.76158e-05
26 *11:11 *94:32 1.73092e-05
27 *11:11 *94:34 6.96653e-05
28 *11:11 *95:15 0.000498824
29 *11:11 *137:47 1.10803e-05
30 *11:11 *137:52 8.16234e-05
31 *11:11 *137:162 0
32 *11:11 *144:19 2.3228e-05
33 *433:A *434:A 5.06989e-05
34 *10:22 *434:A 9.03508e-06
35 *10:22 *11:11 0
*RES
1 gpio_defaults[7] *11:11 37.9575 
2 *11:11 *434:A 5.7825 
3 *11:11 *209:DIODE 10.7475 
*END

*D_NET *12 0.00759673
*CONN
*P gpio_defaults[8] I
*I *435:A I *D sky130_fd_sc_hd__clkbuf_2
*I *210:DIODE I *D sky130_fd_sc_hd__diode_2
*CAP
1 gpio_defaults[8] 0.00103788
2 *435:A 0.000465243
3 *210:DIODE 5.83459e-05
4 *12:21 0.00156147
5 *210:DIODE *354:B 4.66108e-05
6 *210:DIODE *407:A 0.000191335
7 *210:DIODE *427:A 7.18413e-05
8 *435:A *382:RESET_B 0.000297925
9 *435:A *407:A 1.43558e-05
10 *435:A *419:A 4.66108e-05
11 *435:A *427:A 0.000466687
12 *435:A *13:15 0.000220712
13 *435:A *96:20 0.000147268
14 *435:A *97:33 0
15 *12:21 *373:RESET_B 4.78631e-05
16 *12:21 *376:SET_B 0.000324787
17 *12:21 *378:CLK_N 0.000293357
18 *12:21 *378:D 7.21318e-05
19 *12:21 *382:CLK_N 0.000317701
20 *12:21 *382:D 9.50189e-06
21 *12:21 *390:D 0.000223583
22 *12:21 *394:RESET_B 5.05981e-05
23 *12:21 *472:A 0.000769414
24 *12:21 *13:15 0
25 *12:21 *34:37 0.000118081
26 *12:21 *97:24 4.66108e-05
27 *12:21 *97:33 8.35106e-05
28 *12:21 *135:54 9.85455e-05
29 *12:21 *144:19 0.000199231
30 *12:21 *156:35 1.88602e-05
31 *11:11 *12:21 0.000296665
*RES
1 gpio_defaults[8] *12:21 33.36 
2 *12:21 *210:DIODE 3.43 
3 *12:21 *435:A 15.845 
*END

*D_NET *13 0.0100186
*CONN
*P gpio_defaults[9] I
*I *436:A I *D sky130_fd_sc_hd__clkbuf_2
*I *211:DIODE I *D sky130_fd_sc_hd__diode_2
*CAP
1 gpio_defaults[9] 0.00186717
2 *436:A 0.000342898
3 *211:DIODE 0.000499489
4 *13:15 0.00270955
5 *211:DIODE *440:A 0.00046162
6 *211:DIODE *468:A 0.000182949
7 *211:DIODE *95:26 0.000248733
8 *211:DIODE *137:52 6.7975e-05
9 *436:A *333:A 0
10 *436:A *377:CLK_N 6.09029e-05
11 *436:A *468:A 5.91985e-05
12 *436:A *137:47 3.59618e-05
13 *436:A *138:29 6.20104e-05
14 *13:15 *373:RESET_B 0.000132768
15 *13:15 *374:CLK_N 0
16 *13:15 *376:CLK_N 0
17 *13:15 *376:RESET_B 0
18 *13:15 *377:RESET_B 0.000133453
19 *13:15 *378:CLK_N 2.3228e-05
20 *13:15 *378:RESET_B 0
21 *13:15 *382:RESET_B 0.00034479
22 *13:15 *383:CLK_N 5.94542e-05
23 *13:15 *383:D 2.76356e-05
24 *13:15 *392:D 6.90254e-05
25 *13:15 *468:A 3.90019e-05
26 *13:15 *472:A 0.000510274
27 *13:15 *39:23 0
28 *13:15 *95:26 0.0006459
29 *13:15 *97:33 0
30 *13:15 *137:99 0
31 *13:15 *142:15 5.78828e-06
32 *13:15 *144:19 0.000737418
33 *209:DIODE *211:DIODE 8.64566e-05
34 *435:A *13:15 0.000220712
35 *2:13 *13:15 0
36 *5:21 *436:A 0.000384277
37 *12:21 *13:15 0
*RES
1 gpio_defaults[9] *13:15 42.7525 
2 *13:15 *211:DIODE 14.4525 
3 *13:15 *436:A 6.0797 
*END

*D_NET *14 0.00588155
*CONN
*P mgmt_gpio_in O
*I *453:X O *D sky130_fd_sc_hd__buf_16
*CAP
1 mgmt_gpio_in 0.00129401
2 *453:X 0.00127375
3 *14:22 2.02609e-05
4 mgmt_gpio_in pad_gpio_ana_en 0.000745375
5 mgmt_gpio_in zero 7.20621e-05
6 mgmt_gpio_in *212:DIODE 1.90535e-05
7 mgmt_gpio_in *440:A 1.54665e-05
8 mgmt_gpio_in *442:A 0.00060339
9 mgmt_gpio_in *475:A 0.000658231
10 mgmt_gpio_in *41:19 0.000899627
11 mgmt_gpio_in *106:8 0.000122202
12 mgmt_gpio_in *138:53 0.000158128
*RES
1 *453:X mgmt_gpio_in 44.8725 
2 mgmt_gpio_in *14:22 0.0481333 
*END

*D_NET *15 0.00794844
*CONN
*P mgmt_gpio_oeb I
*I *437:A I *D sky130_fd_sc_hd__clkbuf_2
*I *212:DIODE I *D sky130_fd_sc_hd__diode_2
*CAP
1 mgmt_gpio_oeb 0.00195634
2 *437:A 0
3 *212:DIODE 0.000216648
4 *15:14 0.000710012
5 *15:13 0.00244971
6 *212:DIODE *207:DIODE 3.89259e-05
7 *212:DIODE *214:DIODE 1.57817e-05
8 *212:DIODE *41:19 8.52972e-05
9 *15:13 one 9.14038e-05
10 *15:13 pad_gpio_ana_pol 0.000453183
11 *15:13 pad_gpio_dm[0] 9.89342e-05
12 *15:13 pad_gpio_out 0.00081943
13 *15:13 zero 0.000132414
14 *15:13 *362:A 2.22026e-05
15 *15:13 *41:10 0
16 *15:14 *214:DIODE 0.000212816
17 *15:14 *333:A 8.41703e-06
18 *15:14 *444:A 5.87002e-05
19 *15:14 *26:24 4.85527e-05
20 *15:14 *139:10 0.000510626
21 mgmt_gpio_in *212:DIODE 1.90535e-05
*RES
1 mgmt_gpio_oeb *15:13 42.2656 
2 *15:13 *15:14 10.56 
3 *15:14 *212:DIODE 6.84 
4 *15:14 *437:A 3.6 
*END

*D_NET *16 0.00956971
*CONN
*P mgmt_gpio_out I
*I *438:A I *D sky130_fd_sc_hd__clkbuf_2
*I *213:DIODE I *D sky130_fd_sc_hd__diode_2
*CAP
1 mgmt_gpio_out 0.00198388
2 *438:A 0
3 *213:DIODE 0.0001961
4 *16:37 3.17858e-05
5 *16:21 0.00054358
6 *16:18 0.00229958
7 *213:DIODE *368:A 9.09788e-06
8 *213:DIODE *453:A 0.000278705
9 *213:DIODE *17:13 8.52883e-05
10 *213:DIODE *105:27 8.03834e-05
11 *213:DIODE *141:15 8.41307e-05
12 *16:18 pad_gpio_ib_mode_sel 0.0015784
13 *16:18 pad_gpio_vtrip_sel 8.06703e-05
14 *16:18 *41:10 0.00100945
15 *16:18 *105:27 4.66108e-05
16 *16:21 *331:A1 0.000754392
17 *16:21 *368:A 1.13346e-05
18 *16:21 *399:A 4.48485e-05
19 *16:21 *411:A 0.000215217
20 *16:21 *460:A 0.000207782
21 *16:21 *105:28 2.84864e-05
*RES
1 mgmt_gpio_out *16:18 48.8175 
2 *16:18 *16:21 11.795 
3 *16:21 *213:DIODE 10.58 
4 *16:21 *438:A 1.6 
5 mgmt_gpio_out *16:37 0.0481333 
*END

*D_NET *17 0.00895561
*CONN
*P one O
*I *452:X O *D sky130_fd_sc_hd__buf_16
*CAP
1 one 0.00097511
2 *452:X 0.00121608
3 *17:13 0.00219119
4 one pad_gpio_ana_en 0.000358118
5 one zero 0.000268589
6 one *20:10 0.000239743
7 *17:13 *371:A 8.41384e-05
8 *17:13 *415:A 0.000147133
9 *17:13 *441:A 0.000119873
10 *17:13 *20:10 0.00176294
11 *17:13 *21:10 0
12 *17:13 *47:18 0.000236515
13 *17:13 *101:19 0.000192776
14 *17:13 *137:42 3.54966e-05
15 *17:13 *140:32 0.000158017
16 *17:13 *141:15 0.000562729
17 *213:DIODE *17:13 8.52883e-05
18 *224:DIODE *17:13 5.79947e-05
19 *227:DIODE *17:13 0.000172483
20 *15:13 one 9.14038e-05
*RES
1 *452:X *17:13 36.9275 
2 *17:13 one 23.47 
*END

*D_NET *18 0.00560264
*CONN
*P pad_gpio_ana_en O
*I *454:X O *D sky130_fd_sc_hd__buf_16
*CAP
1 pad_gpio_ana_en 0.00171335
2 *454:X 0.00168916
3 *18:16 2.41895e-05
4 pad_gpio_ana_en *412:A 2.747e-05
5 pad_gpio_ana_en *452:A 0.000455135
6 pad_gpio_ana_en *19:20 0.000482247
7 pad_gpio_ana_en *22:10 0
8 pad_gpio_ana_en *36:8 0
9 pad_gpio_ana_en *137:14 0.0001076
10 mgmt_gpio_in pad_gpio_ana_en 0.000745375
11 one pad_gpio_ana_en 0.000358118
*RES
1 *454:X pad_gpio_ana_en 40.4675 
2 pad_gpio_ana_en *18:16 0.0481333 
*END

*D_NET *19 0.0108924
*CONN
*P pad_gpio_ana_pol O
*I *455:X O *D sky130_fd_sc_hd__buf_16
*CAP
1 pad_gpio_ana_pol 0.000482383
2 *455:X 0.00157579
3 *19:30 2.41699e-05
4 *19:20 0.002034
5 pad_gpio_ana_pol pad_gpio_ana_sel 0.000811376
6 pad_gpio_ana_pol pad_gpio_dm[0] 0.00152006
7 pad_gpio_ana_pol pad_gpio_outenb 0.000708145
8 pad_gpio_ana_pol pad_gpio_vtrip_sel 9.79963e-05
9 pad_gpio_ana_pol *41:10 5.75175e-05
10 *19:20 *22:10 0.00134055
11 *19:20 *28:14 0.000483094
12 *19:20 *36:8 0.000315959
13 *19:20 *36:12 4.77769e-05
14 *19:20 *103:12 7.63391e-05
15 *19:20 *105:27 0.000381857
16 pad_gpio_ana_en *19:20 0.000482247
17 *15:13 pad_gpio_ana_pol 0.000453183
*RES
1 *455:X *19:20 48.13 
2 *19:20 pad_gpio_ana_pol 27.6375 
3 pad_gpio_ana_pol *19:30 0.0481333 
*END

*D_NET *20 0.00978327
*CONN
*P pad_gpio_ana_sel O
*I *456:X O *D sky130_fd_sc_hd__buf_16
*CAP
1 pad_gpio_ana_sel 0.000447964
2 *456:X 0.00119485
3 *20:10 0.00164281
4 pad_gpio_ana_sel pad_gpio_dm[0] 0.00119318
5 pad_gpio_ana_sel pad_gpio_out 0.000529941
6 pad_gpio_ana_sel pad_gpio_outenb 8.73389e-06
7 pad_gpio_ana_sel *30:11 0.000475423
8 pad_gpio_ana_sel *41:10 0.00014824
9 *20:10 zero 0.000492706
10 *20:10 *453:A 0.00016032
11 *20:10 *22:10 0.000638187
12 *20:10 *29:22 3.68596e-05
13 one *20:10 0.000239743
14 pad_gpio_ana_pol pad_gpio_ana_sel 0.000811376
15 *17:13 *20:10 0.00176294
*RES
1 *456:X *20:10 39.695 
2 *20:10 pad_gpio_ana_sel 23.5825 
*END

*D_NET *21 0.00902983
*CONN
*P pad_gpio_dm[0] O
*I *457:X O *D sky130_fd_sc_hd__buf_16
*CAP
1 pad_gpio_dm[0] 0.000787893
2 *457:X 0.00105015
3 *21:10 0.00183804
4 pad_gpio_dm[0] pad_gpio_ib_mode_sel 6.10352e-05
5 pad_gpio_dm[0] pad_gpio_vtrip_sel 0.000151688
6 pad_gpio_dm[0] *27:10 1.1392e-05
7 pad_gpio_dm[0] *30:11 0.000368188
8 pad_gpio_dm[0] *31:11 6.17344e-05
9 *21:10 *397:RESET_B 0.000516678
10 *21:10 *460:A 0.00019312
11 *21:10 *24:10 0.00107924
12 *21:10 *27:10 9.84957e-05
13 *21:10 *42:17 0
14 *21:10 *140:32 0
15 pad_gpio_ana_pol pad_gpio_dm[0] 0.00152006
16 pad_gpio_ana_sel pad_gpio_dm[0] 0.00119318
17 *15:13 pad_gpio_dm[0] 9.89342e-05
18 *17:13 *21:10 0
*RES
1 *457:X *21:10 29.645 
2 *21:10 pad_gpio_dm[0] 30.4225 
*END

*D_NET *22 0.0128075
*CONN
*P pad_gpio_dm[1] O
*I *458:X O *D sky130_fd_sc_hd__buf_16
*CAP
1 pad_gpio_dm[1] 0.00117548
2 *458:X 0.000820679
3 *22:18 2.41699e-05
4 *22:10 0.00197199
5 pad_gpio_dm[1] pad_gpio_dm[2] 0.000847944
6 pad_gpio_dm[1] pad_gpio_holdover 0.00259245
7 pad_gpio_dm[1] *23:27 1.13785e-05
8 pad_gpio_dm[1] *34:10 0.000491597
9 pad_gpio_dm[1] *34:29 0.000156312
10 pad_gpio_dm[1] *36:7 0
11 *22:10 *28:14 0.000979076
12 *22:10 *29:22 0
13 *22:10 *36:8 0.00175767
14 pad_gpio_ana_en *22:10 0
15 *19:20 *22:10 0.00134055
16 *20:10 *22:10 0.000638187
*RES
1 *458:X *22:10 40.805 
2 *22:10 pad_gpio_dm[1] 38.3875 
3 pad_gpio_dm[1] *22:18 0.0481333 
*END

*D_NET *23 0.0144297
*CONN
*P pad_gpio_dm[2] O
*I *459:X O *D sky130_fd_sc_hd__buf_16
*CAP
1 pad_gpio_dm[2] 0.000223614
2 *459:X 0.00106832
3 *23:27 0.00191496
4 *23:19 0.00275967
5 pad_gpio_dm[2] pad_gpio_holdover 5.15659e-05
6 pad_gpio_dm[2] pad_gpio_vtrip_sel 0.000696214
7 pad_gpio_dm[2] *36:7 0
8 *23:19 serial_data_out 7.32789e-05
9 *23:19 *358:B 0.000344916
10 *23:19 *374:D 3.64998e-06
11 *23:19 *374:RESET_B 8.61872e-05
12 *23:19 *374:SET_B 2.12068e-05
13 *23:19 *380:CLK_N 1.8185e-05
14 *23:19 *384:RESET_B 0.00013499
15 *23:19 *384:SET_B 6.61139e-05
16 *23:19 *396:D 0.000277538
17 *23:19 *465:A 0.000191335
18 *23:19 *103:12 0.000302093
19 *23:19 *136:10 0.000301591
20 *23:19 *136:17 0.000273961
21 *23:19 *136:39 4.28943e-05
22 *23:19 *166:12 0.000265304
23 *23:19 *168:10 0.000198518
24 *23:27 pad_gpio_holdover 0.000460026
25 *23:27 serial_data_out 0.00301609
26 *23:27 *330:B 3.112e-05
27 *23:27 *465:A 1.16849e-05