*SPEF "ieee 1481-1999"
*DESIGN "gpio_control_block"
*DATE "11:11:11 Fri 11 11, 1111"
*VENDOR "OpenRCX"
*PROGRAM "Parallel Extraction"
*VERSION "1.0"
*DESIGN_FLOW "NAME_SCOPE LOCAL" "PIN_CAP NONE"
*DIVIDER /
*DELIMITER :
*BUS_DELIMITER []
*T_UNIT 1 NS
*C_UNIT 1 PF
*R_UNIT 1 OHM
*L_UNIT 1 HENRY

*NAME_MAP
*1 gpio_defaults[0]
*2 gpio_defaults[10]
*3 gpio_defaults[11]
*4 gpio_defaults[12]
*5 gpio_defaults[1]
*6 gpio_defaults[2]
*7 gpio_defaults[3]
*8 gpio_defaults[4]
*9 gpio_defaults[5]
*10 gpio_defaults[6]
*11 gpio_defaults[7]
*12 gpio_defaults[8]
*13 gpio_defaults[9]
*14 mgmt_gpio_in
*15 mgmt_gpio_oeb
*16 mgmt_gpio_out
*17 one
*18 pad_gpio_ana_en
*19 pad_gpio_ana_pol
*20 pad_gpio_ana_sel
*21 pad_gpio_dm[0]
*22 pad_gpio_dm[1]
*23 pad_gpio_dm[2]
*24 pad_gpio_holdover
*25 pad_gpio_ib_mode_sel
*26 pad_gpio_in
*27 pad_gpio_inenb
*28 pad_gpio_out
*29 pad_gpio_outenb
*30 pad_gpio_slow_sel
*31 pad_gpio_vtrip_sel
*32 resetn
*33 resetn_out
*34 serial_clock
*35 serial_clock_out
*36 serial_data_in
*37 serial_data_out
*38 serial_load
*39 serial_load_out
*40 user_gpio_in
*41 user_gpio_oeb
*42 user_gpio_out
*47 zero
*48 _000_
*49 _001_
*50 _002_
*51 _003_
*52 _004_
*53 _005_
*54 _006_
*55 _007_
*56 _008_
*57 _009_
*58 _010_
*59 _011_
*60 _012_
*61 _013_
*62 _014_
*63 _015_
*64 _016_
*65 _017_
*66 _018_
*67 _019_
*68 _020_
*69 _021_
*70 _022_
*71 _023_
*72 _024_
*73 _025_
*74 _026_
*75 _041_
*76 _042_
*77 _043_
*78 _044_
*79 _045_
*80 _046_
*81 _047_
*82 _048_
*83 _049_
*84 _050_
*85 _051_
*86 _052_
*87 _053_
*88 _054_
*89 _055_
*90 _056_
*91 _057_
*92 clknet_0_serial_clock
*93 clknet_0_serial_load
*94 clknet_1_0__leaf_serial_clock
*95 clknet_1_0__leaf_serial_load
*96 clknet_1_1__leaf_serial_clock
*97 clknet_1_1__leaf_serial_load
*98 gpio_logic1
*99 gpio_outenb
*100 mgmt_ena
*101 net1
*102 net10
*103 net11
*104 net12
*105 net13
*106 net14
*107 net15
*108 net16
*109 net17
*110 net18
*111 net19
*112 net2
*113 net20
*114 net21
*115 net22
*116 net23
*117 net24
*118 net25
*119 net26
*120 net27
*121 net28
*122 net29
*123 net3
*124 net30
*125 net31
*126 net32
*127 net33
*128 net34
*129 net35
*130 net36
*131 net37
*132 net38
*133 net39
*134 net4
*135 net40
*136 net41
*137 net42
*138 net43
*139 net44
*140 net45
*141 net46
*142 net47
*143 net48
*144 net49
*145 net5
*146 net50
*147 net51
*148 net52
*149 net53
*150 net54
*151 net55
*152 net56
*153 net57
*154 net58
*155 net59
*156 net6
*157 net60
*158 net61
*159 net62
*160 net63
*161 net64
*162 net65
*163 net66
*164 net67
*165 net68
*166 net69
*167 net7
*168 net70
*169 net71
*170 net72
*171 net73
*172 net74
*173 net8
*174 net9
*175 one_buffered
*176 serial_clock_out_buffered
*177 serial_load_out_buffered
*178 shift_register\[0\]
*179 shift_register\[10\]
*180 shift_register\[11\]
*181 shift_register\[12\]
*182 shift_register\[1\]
*183 shift_register\[2\]
*184 shift_register\[3\]
*185 shift_register\[4\]
*186 shift_register\[5\]
*187 shift_register\[6\]
*188 shift_register\[7\]
*189 shift_register\[8\]
*190 shift_register\[9\]
*191 zero_buffered
*192 ANTENNA__069__A_N
*193 ANTENNA__070__A
*194 ANTENNA__071__A_N
*195 ANTENNA__076__A
*196 ANTENNA__077__A_N
*197 ANTENNA__080__A
*198 ANTENNA__081__A_N
*199 ANTENNA__086__B
*200 ANTENNA__087__B
*201 ANTENNA__119__RESET_B
*202 ANTENNA__120__RESET_B
*203 ANTENNA__121__RESET_B
*204 ANTENNA__122__RESET_B
*205 ANTENNA_clkbuf_0_serial_clock_A
*206 ANTENNA_clkbuf_0_serial_load_A
*207 ANTENNA_fanout42_A
*208 ANTENNA_input10_A
*209 ANTENNA_input11_A
*210 ANTENNA_input12_A
*211 ANTENNA_input13_A
*212 ANTENNA_input14_A
*213 ANTENNA_input15_A
*214 ANTENNA_input16_A
*215 ANTENNA_input17_A
*216 ANTENNA_input18_A
*217 ANTENNA_input19_A
*218 ANTENNA_input1_A
*219 ANTENNA_input20_A
*220 ANTENNA_input2_A
*221 ANTENNA_input3_A
*222 ANTENNA_input4_A
*223 ANTENNA_input5_A
*224 ANTENNA_input6_A
*225 ANTENNA_input7_A
*226 ANTENNA_input8_A
*227 ANTENNA_input9_A
*228 FILLER_0_29
*229 FILLER_0_3
*230 FILLER_0_61
*231 FILLER_0_87
*232 FILLER_0_92
*233 FILLER_0_99
*234 FILLER_10_3
*235 FILLER_11_3
*236 FILLER_13_3
*237 FILLER_13_99
*238 FILLER_14_3
*239 FILLER_16_3
*240 FILLER_16_60
*241 FILLER_17_3
*242 FILLER_17_57
*243 FILLER_17_99
*244 FILLER_1_30
*245 FILLER_1_99
*246 FILLER_3_99
*247 FILLER_4_50
*248 FILLER_5_84
*249 FILLER_9_3
*250 PHY_0
*251 PHY_1
*252 PHY_10
*253 PHY_11
*254 PHY_12
*255 PHY_13
*256 PHY_14
*257 PHY_15
*258 PHY_16
*259 PHY_17
*260 PHY_18
*261 PHY_19
*262 PHY_2
*263 PHY_20
*264 PHY_21
*265 PHY_22
*266 PHY_23
*267 PHY_24
*268 PHY_25
*269 PHY_26
*270 PHY_27
*271 PHY_28
*272 PHY_29
*273 PHY_3
*274 PHY_30
*275 PHY_31
*276 PHY_32
*277 PHY_33
*278 PHY_34
*279 PHY_35
*280 PHY_36
*281 PHY_37
*282 PHY_38
*283 PHY_39
*284 PHY_4
*285 PHY_40
*286 PHY_41
*287 PHY_5
*288 PHY_6
*289 PHY_7
*290 PHY_8
*291 PHY_9
*292 TAP_42
*293 TAP_43
*294 TAP_44
*295 TAP_45
*296 TAP_46
*297 TAP_47
*298 TAP_48
*299 TAP_49
*300 TAP_50
*301 TAP_51
*302 TAP_52
*303 TAP_53
*304 TAP_54
*305 TAP_55
*306 TAP_56
*307 TAP_57
*308 TAP_58
*309 TAP_59
*310 TAP_60
*311 TAP_61
*312 TAP_62
*313 TAP_63
*314 TAP_64
*315 TAP_65
*316 TAP_66
*317 TAP_67
*318 TAP_68
*319 TAP_69
*320 TAP_70
*321 TAP_71
*322 TAP_72
*323 TAP_73
*324 _058__1
*325 _059__14
*326 _060_
*327 _061_
*328 _062_
*329 _063_
*330 _064_
*331 _065_
*332 _066_
*333 _067_
*334 _068_
*335 _069_
*336 _070_
*337 _071_
*338 _072_
*339 _073_
*340 _074_
*341 _075_
*342 _076_
*343 _077_
*344 _078_
*345 _079_
*346 _080_
*347 _081_
*348 _082_
*349 _083_
*350 _084_
*351 _085_
*352 _086_
*353 _087_
*354 _088_
*355 _089_
*356 _090_
*357 _091_
*358 _092_
*359 _093_
*360 _094__2
*361 _095__3
*362 _096__4
*363 _097__5
*364 _098__6
*365 _099__7
*366 _100__8
*367 _101__9
*368 _102__10
*369 _103__11
*370 _104__12
*371 _105__13
*372 _106_
*373 _107_
*374 _108_
*375 _109_
*376 _110_
*377 _111_
*378 _112_
*379 _113_
*380 _114_
*381 _115_
*382 _116_
*383 _117_
*384 _118_
*385 _119_
*386 _120_
*387 _121_
*388 _122_
*389 _123_
*390 _124_
*391 _125_
*392 _126_
*393 _127_
*394 _128_
*395 _129_
*396 _130_
*397 _131_
*398 _132_
*399 _133_
*400 _134_
*401 _135_
*402 _136_
*403 clkbuf_0_serial_clock
*404 clkbuf_0_serial_load
*405 clkbuf_1_0__f_serial_clock
*406 clkbuf_1_0__f_serial_load
*407 clkbuf_1_1__f_serial_clock
*408 clkbuf_1_1__f_serial_load
*409 const_source
*410 fanout40
*411 fanout41
*412 fanout42
*413 fanout43
*414 fanout44
*415 fanout45
*416 fanout46
*417 fanout47
*418 gpio_logic_high
*419 hold1
*420 hold10
*421 hold11
*422 hold12
*423 hold13
*424 hold2
*425 hold3
*426 hold4
*427 hold5
*428 hold6
*429 hold7
*430 hold8
*431 hold9
*432 input1
*433 input10
*434 input11
*435 input12
*436 input13
*437 input14
*438 input15
*439 input16
*440 input17
*441 input18
*442 input19
*443 input2
*444 input20
*445 input3
*446 input4
*447 input5
*448 input6
*449 input7
*450 input8
*451 input9
*452 one_buffer
*453 output21
*454 output22
*455 output23
*456 output24
*457 output25
*458 output26
*459 output27
*460 output28
*461 output29
*462 output30
*463 output31
*464 output32
*465 output33
*466 output34
*467 output35
*468 output36
*469 output37
*470 output38
*471 output39
*472 serial_clock_out_buffer
*473 serial_load_out_buffer
*474 spare_cell
*475 zero_buffer

*PORTS
gpio_defaults[0] I
gpio_defaults[10] I
gpio_defaults[11] I
gpio_defaults[12] I
gpio_defaults[1] I
gpio_defaults[2] I
gpio_defaults[3] I
gpio_defaults[4] I
gpio_defaults[5] I
gpio_defaults[6] I
gpio_defaults[7] I
gpio_defaults[8] I
gpio_defaults[9] I
mgmt_gpio_in O
mgmt_gpio_oeb I
mgmt_gpio_out I
one O
pad_gpio_ana_en O
pad_gpio_ana_pol O
pad_gpio_ana_sel O
pad_gpio_dm[0] O
pad_gpio_dm[1] O
pad_gpio_dm[2] O
pad_gpio_holdover O
pad_gpio_ib_mode_sel O
pad_gpio_in I
pad_gpio_inenb O
pad_gpio_out O
pad_gpio_outenb O
pad_gpio_slow_sel O
pad_gpio_vtrip_sel O
resetn I
resetn_out O
serial_clock I
serial_clock_out O
serial_data_in I
serial_data_out O
serial_load I
serial_load_out O
user_gpio_in O
user_gpio_oeb I
user_gpio_out I
zero O

*D_NET *1 0.0087585
*CONN
*P gpio_defaults[0] I
*I *432:A I *D sky130_fd_sc_hd__clkbuf_2
*I *218:DIODE I *D sky130_fd_sc_hd__diode_2
*CAP
1 gpio_defaults[0] 0.00021187
2 *432:A 0.000106548
3 *218:DIODE 0.000120607
4 *1:12 0.000939668
5 *1:7 0.00317087
6 *1:5 0.00267023
7 *218:DIODE *8:16 1.22217e-05
8 *218:DIODE *137:59 7.74854e-05
9 *218:DIODE *138:29 0.000137898
10 *432:A *417:A 9.66668e-05
11 *432:A *8:16 3.32402e-05
12 *432:A *138:29 0.000111106
13 *1:12 *417:A 1.26854e-05
14 *1:12 *145:9 0.00105741
*RES
1 gpio_defaults[0] *1:5 4.83679 
2 *1:5 *1:7 55.9596 
3 *1:7 *1:12 46.82 
4 *1:12 *218:DIODE 40.9621 
5 *1:12 *432:A 40.6514 
*END

*D_NET *2 0.0144598
*CONN
*P gpio_defaults[10] I
*I *220:DIODE I *D sky130_fd_sc_hd__diode_2
*I *443:A I *D sky130_fd_sc_hd__clkbuf_2
*CAP
1 gpio_defaults[10] 0.00120063
2 *220:DIODE 0
3 *443:A 0
4 *2:32 0.00104361
5 *2:20 0.00154195
6 *2:13 0.00378619
7 *2:13 *376:RESET_B 0.000599447
8 *2:13 *398:RESET_B 0.000384364
9 *2:13 *3:8 0.000189358
10 *2:13 *4:13 0
11 *2:13 *13:9 0
12 *2:13 *31:6 0.0003338
13 *2:13 *122:11 0.000339015
14 *2:13 *133:16 0.000160067
15 *2:13 *137:79 2.05503e-05
16 *2:13 *137:99 0.000194986
17 *2:13 *140:68 0.000146536
18 *2:13 *141:42 4.81894e-05
19 *2:13 *143:8 5.61424e-05
20 *2:13 *148:8 1.07105e-05
21 *2:13 *156:21 0.000963257
22 *2:20 *7:24 1.98125e-05
23 *2:20 *111:17 0.000208311
24 *2:20 *112:11 0.00189374
25 *2:20 *173:8 2.44039e-05
26 *2:32 *331:A2 2.42041e-05
27 *2:32 *71:13 5.54074e-05
28 *2:32 *79:17 4.13467e-05
29 *2:32 *107:15 5.40241e-05
30 *2:32 *111:17 0.000153401
31 *2:32 *112:11 0.000958096
32 *2:32 *118:14 8.21456e-06
*RES
1 gpio_defaults[10] *2:13 41.4018 
2 *2:13 *2:20 28.6911 
3 *2:20 *443:A 23 
4 *2:13 *2:32 30.2613 
5 *2:32 *220:DIODE 23 
*END

*D_NET *3 0.00892759
*CONN
*P gpio_defaults[11] I
*I *221:DIODE I *D sky130_fd_sc_hd__diode_2
*I *445:A I *D sky130_fd_sc_hd__clkbuf_2
*CAP
1 gpio_defaults[11] 0.00131639
2 *221:DIODE 0.000451133
3 *445:A 0
4 *3:22 0.000769268
5 *3:8 0.00163453
6 *221:DIODE *28:7 0.000265106
7 *221:DIODE *75:11 0.000137525
8 *3:8 *335:B 6.30383e-05
9 *3:8 *338:B 0.000479584
10 *3:8 *4:13 0
11 *3:8 *38:27 0.0001784
12 *3:8 *39:19 0.000584304
13 *3:8 *133:16 0.000156851
14 *3:8 *138:108 8.91046e-05
15 *3:8 *139:35 9.77405e-05
16 *3:8 *143:8 0.000792592
17 *3:8 *156:15 2.812e-05
18 *3:8 *156:21 0.000874369
19 *3:8 *180:8 6.15872e-05
20 *3:22 *28:7 8.14911e-05
21 *3:22 *105:28 0.000118384
22 *3:22 *125:18 1.05441e-05
23 *3:22 *126:8 0.000360933
24 *3:22 *127:8 0.000159683
25 *3:22 *139:32 2.75491e-05
26 *2:13 *3:8 0.000189358
*RES
1 gpio_defaults[11] *3:8 48.93 
2 *3:8 *3:22 37.8921 
3 *3:22 *445:A 23 
4 *3:22 *221:DIODE 31.12 
*END

*D_NET *4 0.021923
*CONN
*P gpio_defaults[12] I
*I *222:DIODE I *D sky130_fd_sc_hd__diode_2
*I *446:A I *D sky130_fd_sc_hd__clkbuf_2
*CAP
1 gpio_defaults[12] 0.0060192
2 *222:DIODE 0.000560861
3 *446:A 0
4 *4:21 0.00262478
5 *4:15 0.00318564
6 *4:13 0.0060192
7 *222:DIODE *114:8 4.43469e-05
8 *222:DIODE *138:59 0
9 *222:DIODE *191:6 3.87221e-06
10 *4:13 *335:B 3.87221e-06
11 *4:13 *33:20 8.83985e-05
12 *4:13 *50:8 2.93518e-05
13 *4:13 *112:36 0.000114338
14 *4:13 *118:14 0.000113929
15 *4:13 *134:40 0.00114762
16 *4:13 *137:162 0
17 *4:13 *138:108 0
18 *4:13 *158:8 0.000134776
19 *4:13 *166:27 0.000111106
20 *4:13 *167:37 7.19778e-05
21 *4:13 *170:8 4.04032e-05
22 *4:13 *170:10 0.000150176
23 *4:13 *171:13 9.4464e-05
24 *4:13 *185:14 0.000601426
25 *4:21 *442:A 0.000138042
26 *4:21 *32:23 0.000240386
27 *4:21 *41:26 0.000131624
28 *4:21 *132:16 1.09162e-05
29 *4:21 *134:12 0
30 *4:21 *134:15 0.000120479
31 *4:21 *134:21 0.00012182
32 *2:13 *4:13 0
33 *3:8 *4:13 0
*RES
1 gpio_defaults[12] *4:13 43.0463 
2 *4:13 *4:15 8 
3 *4:15 *4:21 28.7524 
4 *4:21 *446:A 23 
5 *4:15 *222:DIODE 47.4591 
*END

*D_NET *5 0.0126168
*CONN
*P gpio_defaults[1] I
*I *447:A I *D sky130_fd_sc_hd__clkbuf_2
*I *223:DIODE I *D sky130_fd_sc_hd__diode_2
*CAP
1 gpio_defaults[1] 0.00129253
2 *447:A 0
3 *223:DIODE 0.00050678
4 *5:21 0.00147669
5 *5:14 0.00165039
6 *5:9 0.00197301
7 *223:DIODE *95:26 1.223e-05
8 *223:DIODE *95:48 0
9 *223:DIODE *144:6 0.000166088
10 *223:DIODE *145:6 0.000284809
11 *223:DIODE *145:9 0.000404318
12 *223:DIODE *150:8 1.16551e-05
13 *5:9 *347:A_N 0.000121698
14 *5:9 *385:CLK 5.30305e-05
15 *5:9 *389:RESET_B 0.000125524
16 *5:9 *6:13 0
17 *5:9 *62:6 4.11274e-05
18 *5:9 *67:8 1.05658e-05
19 *5:9 *94:88 1.26815e-05
20 *5:9 *136:84 0.000543782
21 *5:9 *137:123 8.07477e-05
22 *5:9 *145:12 0.000146811
23 *5:9 *145:27 0
24 *5:9 *156:49 0.000165394
25 *5:9 *173:8 0.000572577
26 *5:9 *173:23 7.73177e-05
27 *5:9 *177:8 0.000719014
28 *5:14 *355:A_N 0
29 *5:14 *7:24 0
30 *5:14 *110:13 0.000305643
31 *5:14 *138:14 0
32 *5:14 *142:15 7.02534e-05
33 *5:21 *401:A 2.08617e-05
34 *5:21 *10:11 6.80752e-05
35 *5:21 *13:32 0.000449506
36 *5:21 *94:34 0
37 *5:21 *130:17 7.53198e-05
38 *5:21 *144:6 1.20966e-05
39 *5:21 *149:10 0.000847804
40 *5:21 *174:16 0.000318439
*RES
1 gpio_defaults[1] *5:9 40.1029 
2 *5:9 *5:14 42.0557 
3 *5:14 *5:21 29.1688 
4 *5:21 *223:DIODE 47.5079 
5 *5:21 *447:A 38 
*END

*D_NET *6 0.013524
*CONN
*P gpio_defaults[2] I
*I *448:A I *D sky130_fd_sc_hd__clkbuf_2
*I *224:DIODE I *D sky130_fd_sc_hd__diode_2
*CAP
1 gpio_defaults[2] 0.000628257
2 *448:A 0
3 *224:DIODE 0.000274097
4 *6:21 0.000635551
5 *6:20 0.00310634
6 *6:13 0.00337314
7 *224:DIODE *17:8 6.03228e-05
8 *224:DIODE *36:20 0.000107232
9 *224:DIODE *102:18 0.000174671
10 *224:DIODE *137:30 5.8118e-05
11 *6:13 *385:CLK 8.40065e-05
12 *6:13 *385:D 0.000559691
13 *6:13 *7:12 0
14 *6:13 *132:15 0.000141761
15 *6:13 *138:91 0.000665928
16 *6:13 *161:11 3.76014e-05
17 *6:13 *166:35 0.000140036
18 *6:20 *357:B 5.94145e-05
19 *6:20 *392:RESET_B 4.90586e-05
20 *6:20 *7:24 0.00106541
21 *6:20 *95:68 0.000170239
22 *6:20 *98:15 0
23 *6:20 *102:37 1.67207e-05
24 *6:20 *111:17 4.66027e-05
25 *6:20 *129:8 0.000138747
26 *6:20 *132:16 0
27 *6:20 *136:54 0
28 *6:20 *138:14 0.000226732
29 *6:20 *138:91 0.000643903
30 *6:20 *165:30 1.92442e-05
31 *6:20 *169:44 0.000111045
32 *6:20 *187:21 0.000166426
33 *6:21 *102:18 0.000440938
34 *6:21 *115:10 0
35 *6:21 *143:8 9.90806e-05
36 *6:21 *157:11 9.77051e-06
37 *6:21 *159:8 0.000121717
38 *6:21 *169:44 9.21773e-05
39 *5:9 *6:13 0
*RES
1 gpio_defaults[2] *6:13 46.7786 
2 *6:13 *6:20 44.8052 
3 *6:20 *6:21 8.42036 
4 *6:21 *224:DIODE 43.3443 
5 *6:21 *448:A 38 
*END

*D_NET *7 0.011641
*CONN
*P gpio_defaults[3] I
*I *225:DIODE I *D sky130_fd_sc_hd__diode_2
*I *449:A I *D sky130_fd_sc_hd__clkbuf_2
*CAP
1 gpio_defaults[3] 0.00124453
2 *225:DIODE 0.000220552
3 *449:A 9.74062e-05
4 *7:27 0.000676895
5 *7:24 0.00114815
6 *7:12 0.00203374
7 *225:DIODE *109:12 5.22919e-05
8 *225:DIODE *137:59 0.000138859
9 *225:DIODE *138:29 6.17437e-06
10 *225:DIODE *145:9 0.000134953
11 *449:A *408:A 5.3304e-05
12 *449:A *167:7 0.000138859
13 *449:A *173:23 1.61361e-05
14 *7:12 *385:D 0
15 *7:12 *408:A 0.000292219
16 *7:12 *8:7 0
17 *7:12 *94:85 3.7473e-07
18 *7:12 *110:23 8.78271e-05
19 *7:12 *132:16 0.000521886
20 *7:12 *135:10 0.0001455
21 *7:12 *138:94 0.00016091
22 *7:12 *138:103 0.000233387
23 *7:12 *161:11 1.09162e-05
24 *7:12 *167:7 0.000302325
25 *7:24 *94:14 6.12484e-05
26 *7:24 *95:11 0.000165547
27 *7:24 *95:68 0.000450487
28 *7:24 *112:8 1.35709e-05
29 *7:24 *138:14 0.000119829
30 *7:27 *109:12 0.00010549
31 *7:27 *111:17 0.00108184
32 *7:27 *132:16 0.000231045
33 *7:27 *142:8 0.000472796
34 *7:27 *142:48 0.000136696
35 *2:20 *7:24 1.98125e-05
36 *5:14 *7:24 0
37 *6:13 *7:12 0
38 *6:20 *7:24 0.00106541
*RES
1 gpio_defaults[3] *7:12 41.68 
2 *7:12 *449:A 25.0507 
3 *7:12 *7:24 48.5393 
4 *7:24 *7:27 35.2171 
5 *7:27 *225:DIODE 42.4329 
*END

*D_NET *8 0.0116954
*CONN
*P gpio_defaults[4] I
*I *450:A I *D sky130_fd_sc_hd__clkbuf_2
*I *226:DIODE I *D sky130_fd_sc_hd__diode_2
*CAP
1 gpio_defaults[4] 0.0014212
2 *450:A 0.000450253
3 *226:DIODE 0
4 *8:16 0.000769435
5 *8:7 0.00264089
6 *450:A *391:D 0.000171218
7 *450:A *94:14 0.000139187
8 *450:A *94:24 0.000226856
9 *8:7 *355:A_N 7.9636e-05
10 *8:7 *390:RESET_B 4.51887e-05
11 *8:7 *9:10 0.000252089
12 *8:7 *92:8 9.27279e-06
13 *8:7 *96:45 0.00104867
14 *8:7 *135:16 8.76347e-05
15 *8:7 *135:26 1.27489e-05
16 *8:7 *135:30 9.56369e-05
17 *8:7 *137:113 0.000321429
18 *8:7 *137:144 8.36198e-05
19 *8:7 *138:94 0
20 *8:7 *138:103 0
21 *8:7 *164:8 0.000316121
22 *8:7 *183:11 0.00106178
23 *8:16 *355:A_N 0.000193034
24 *8:16 *10:17 0.000394874
25 *8:16 *109:12 7.21097e-05
26 *8:16 *110:13 0.000678927
27 *8:16 *134:12 5.81185e-05
28 *8:16 *137:59 0.000165394
29 *8:16 *138:14 5.02756e-05
30 *8:16 *142:8 3.89028e-05
31 *8:16 *182:11 2.97205e-05
32 *8:16 *183:11 0.000735726
33 *218:DIODE *8:16 1.22217e-05
34 *432:A *8:16 3.32402e-05
35 *7:12 *8:7 0
*RES
1 gpio_defaults[4] *8:7 36.3329 
2 *8:7 *8:16 40.4786 
3 *8:16 *226:DIODE 23 
4 *8:7 *450:A 48.2329 
*END

*D_NET *9 0.0144186
*CONN
*P gpio_defaults[5] I
*I *451:A I *D sky130_fd_sc_hd__clkbuf_2
*I *227:DIODE I *D sky130_fd_sc_hd__diode_2
*CAP
1 gpio_defaults[5] 0.000880833
2 *451:A 4.09526e-05
3 *227:DIODE 0
4 *9:32 0.000442811
5 *9:23 0.00121671
6 *9:20 0.00146321
7 *9:10 0.0016111
8 *451:A *97:49 5.3304e-05
9 *9:10 *10:11 0.00010679
10 *9:10 *129:13 0.000222828
11 *9:10 *135:16 0.000335945
12 *9:10 *156:43 0.000122825
13 *9:10 *158:8 2.1819e-05
14 *9:10 *161:23 0.000178235
15 *9:10 *167:15 0.000571885
16 *9:20 *10:11 2.72789e-05
17 *9:20 *33:8 4.05745e-05
18 *9:20 *34:37 2.50756e-05
19 *9:20 *38:27 0.0002546
20 *9:20 *129:13 0.000141103
21 *9:20 *148:14 0.000152026
22 *9:20 *150:14 0.00022308
23 *9:20 *158:8 3.78847e-05
24 *9:20 *162:5 0.00106366
25 *9:23 *339:B 0.00018029
26 *9:23 *101:17 0.00142151
27 *9:23 *104:8 0.00114243
28 *9:23 *152:9 5.9842e-05
29 *9:23 *156:15 0.000485481
30 *9:23 *171:13 0.000282935
31 *9:32 *371:A 5.5792e-05
32 *9:32 *17:11 0.000192462
33 *9:32 *101:17 0.000518463
34 *9:32 *117:8 0.000149983
35 *9:32 *156:15 0.000346262
36 *9:32 *157:7 9.65021e-05
37 *8:7 *9:10 0.000252089
*RES
1 gpio_defaults[5] *9:10 35.3 
2 *9:10 *9:20 46.8821 
3 *9:20 *9:23 40.1471 
4 *9:23 *9:32 27.7393 
5 *9:32 *227:DIODE 23 
6 *9:23 *451:A 38.6214 
*END

*D_NET *10 0.0124297
*CONN
*P gpio_defaults[6] I
*I *208:DIODE I *D sky130_fd_sc_hd__diode_2
*I *433:A I *D sky130_fd_sc_hd__clkbuf_2
*CAP
1 gpio_defaults[6] 0.00194739
2 *208:DIODE 0
3 *433:A 0.000113181
4 *10:41 0.000461254
5 *10:22 0.000791681
6 *10:17 0.000611389
7 *10:11 0.00234153
8 *433:A *434:A 5.68958e-05
9 *433:A *102:14 1.09903e-05
10 *433:A *110:7 0.000231532
11 *10:11 *354:B 0.00021036
12 *10:11 *361:A 0.000388072
13 *10:11 *382:D 0.000322857
14 *10:11 *11:9 0
15 *10:11 *93:21 0.00012332
16 *10:11 *94:32 5.62818e-05
17 *10:11 *94:34 4.26144e-05
18 *10:11 *96:27 1.22093e-05
19 *10:11 *97:24 0.000108349
20 *10:11 *135:77 6.6399e-05
21 *10:11 *136:54 0.000114266
22 *10:11 *136:73 0.00033553
23 *10:11 *137:147 0.000401804
24 *10:11 *137:159 0.000175174
25 *10:11 *149:10 3.12217e-05
26 *10:11 *156:43 0.000255968
27 *10:11 *160:8 0.000412568
28 *10:11 *161:23 0.000181856
29 *10:11 *162:8 0.000239578
30 *10:11 *162:23 0.000424784
31 *10:11 *164:21 0.000168249
32 *10:11 *167:15 0.000180436
33 *10:11 *169:44 2.27289e-05
34 *10:11 *174:16 0.000474427
35 *10:17 *387:RESET_B 4.36616e-05
36 *10:17 *138:29 2.27541e-05
37 *10:17 *182:11 6.26592e-05
38 *10:17 *183:7 3.32626e-05
39 *10:22 *434:A 1.09903e-05
40 *10:22 *110:7 0.000163687
41 *10:41 *401:A 0
42 *10:41 *103:6 6.06831e-05
43 *10:41 *105:12 3.77061e-05
44 *10:41 *149:10 8.23816e-05
45 *5:21 *10:11 6.80752e-05
46 *8:16 *10:17 0.000394874
47 *9:10 *10:11 0.00010679
48 *9:20 *10:11 2.72789e-05
*RES
1 gpio_defaults[6] *10:11 47.5393 
2 *10:11 *10:17 39.0314 
3 *10:17 *10:22 19.0289 
4 *10:22 *433:A 26.3661 
5 *10:22 *10:41 37.8921 
6 *10:41 *208:DIODE 23 
*END

*D_NET *11 0.0116879
*CONN
*P gpio_defaults[7] I
*I *209:DIODE I *D sky130_fd_sc_hd__diode_2
*I *434:A I *D sky130_fd_sc_hd__clkbuf_2
*CAP
1 gpio_defaults[7] 0.00162308
2 *209:DIODE 0.00047165
3 *434:A 0.00014829
4 *11:11 0.000986398
5 *11:9 0.00198954
6 *209:DIODE *401:A 0.000258891
7 *209:DIODE *13:20 0.000102804
8 *209:DIODE *137:52 0.000475264
9 *434:A *386:CLK 0
10 *434:A *401:A 6.32513e-05
11 *11:9 *205:DIODE 2.64829e-05
12 *11:9 *373:SET_B 0.000186557
13 *11:9 *377:SET_B 0.000196318
14 *11:9 *378:SET_B 0.000146136
15 *11:9 *12:12 0.000111531
16 *11:9 *12:21 0.000208279
17 *11:9 *93:12 4.44955e-05
18 *11:9 *95:15 0.000602672
19 *11:9 *135:77 9.27279e-06
20 *11:9 *137:159 0
21 *11:9 *144:14 2.46399e-05
22 *11:9 *150:14 0.000361388
23 *11:9 *154:6 6.00824e-05
24 *11:9 *165:14 0.000145771
25 *11:9 *167:29 8.93751e-06
26 *11:9 *176:8 0.00236782
27 *11:11 *383:CLK_N 0.000289611
28 *11:11 *386:CLK 2.29192e-05
29 *11:11 *401:A 5.65828e-05
30 *11:11 *94:32 1.80639e-05
31 *11:11 *94:34 7.36544e-05
32 *11:11 *135:77 0.000230516
33 *11:11 *137:47 1.382e-05
34 *11:11 *137:52 9.93391e-05
35 *11:11 *140:20 0.000187246
36 *11:11 *176:8 8.74657e-06
37 *433:A *434:A 5.68958e-05
38 *10:11 *11:9 0
39 *10:22 *434:A 1.09903e-05
*RES
1 gpio_defaults[7] *11:9 41.7082 
2 *11:9 *11:11 10.7093 
3 *11:11 *434:A 41.0139 
4 *11:11 *209:DIODE 47.8704 
*END

*D_NET *12 0.00973558
*CONN
*P gpio_defaults[8] I
*I *435:A I *D sky130_fd_sc_hd__clkbuf_2
*I *210:DIODE I *D sky130_fd_sc_hd__diode_2
*CAP
1 gpio_defaults[8] 0.00116849
2 *435:A 0
3 *210:DIODE 9.61546e-05
4 *12:40 0.000658091
5 *12:21 0.00113393
6 *12:12 0.00154817
7 *210:DIODE *354:B 5.3304e-05
8 *210:DIODE *92:13 0.00022034
9 *210:DIODE *187:7 7.66276e-05
10 *12:12 *394:RESET_B 6.2088e-05
11 *12:12 *13:9 0
12 *12:12 *34:37 0.000135037
13 *12:12 *51:8 4.31477e-05
14 *12:12 *58:8 0.00039816
15 *12:12 *97:24 5.3304e-05
16 *12:12 *97:33 9.65021e-05
17 *12:12 *144:6 0.000154942
18 *12:12 *144:14 6.2088e-05
19 *12:12 *150:8 0.000318806
20 *12:12 *156:30 2.26406e-05
21 *12:12 *176:8 0.000884558
22 *12:21 *382:D 9.03851e-06
23 *12:21 *135:54 0.000117289
24 *12:21 *154:6 0.000384741
25 *12:21 *162:23 0.000269108
26 *12:21 *165:14 8.87351e-05
27 *12:40 *13:9 0.000270393
28 *12:40 *69:8 0.000341865
29 *12:40 *92:13 1.57556e-05
30 *12:40 *96:20 0.000156452
31 *12:40 *97:33 0
32 *12:40 *187:7 0.000468278
33 *12:40 *187:21 5.44407e-05
34 *12:40 *188:8 5.3304e-05
35 *11:9 *12:12 0.000111531
36 *11:9 *12:21 0.000208279
*RES
1 gpio_defaults[8] *12:12 42.9436 
2 *12:12 *12:21 39.8393 
3 *12:21 *210:DIODE 25.5271 
4 *12:21 *12:40 44.1479 
5 *12:40 *435:A 23 
*END

*D_NET *13 0.0127285
*CONN
*P gpio_defaults[9] I
*I *436:A I *D sky130_fd_sc_hd__clkbuf_2
*I *211:DIODE I *D sky130_fd_sc_hd__diode_2
*CAP
1 gpio_defaults[9] 0.00196549
2 *436:A 0
3 *211:DIODE 0
4 *13:32 0.0004728
5 *13:20 0.000656168
6 *13:15 0.00170499
7 *13:9 0.00254152
8 *13:9 *376:RESET_B 0
9 *13:9 *392:D 8.36198e-05
10 *13:9 *39:19 0
11 *13:9 *51:8 0.000161793
12 *13:9 *59:8 0.000163256
13 *13:9 *61:13 0
14 *13:9 *69:8 0.000420164
15 *13:9 *97:33 0
16 *13:9 *137:99 0
17 *13:9 *144:6 0.000776546
18 *13:9 *146:11 0
19 *13:9 *148:8 0
20 *13:15 *383:CLK_N 6.30855e-05
21 *13:15 *383:D 2.81066e-05
22 *13:15 *95:26 0.00078028
23 *13:15 *130:8 4.56434e-05
24 *13:15 *142:15 5.32689e-06
25 *13:15 *150:8 2.46399e-05
26 *13:15 *176:8 0.000622421
27 *13:20 *32:23 0.000548305
28 *13:20 *95:26 0.000303052
29 *13:20 *130:8 0.000221215
30 *13:20 *137:52 5.98692e-05
31 *13:32 *98:15 0
32 *13:32 *130:17 6.92544e-05
33 *13:32 *137:47 3.76599e-05
34 *13:32 *138:29 7.64713e-05
35 *13:32 *149:10 7.41204e-05
36 *209:DIODE *13:20 0.000102804
37 *2:13 *13:9 0
38 *5:21 *13:32 0.000449506
39 *12:12 *13:9 0
40 *12:40 *13:9 0.000270393
*RES
1 gpio_defaults[9] *13:9 39.7507 
2 *13:9 *13:15 43.7646 
3 *13:15 *13:20 29.9868 
4 *13:20 *211:DIODE 23 
5 *13:15 *13:32 33.1118 
6 *13:32 *436:A 23 
*END

*D_NET *14 0.00680977
*CONN
*P mgmt_gpio_in O
*I *453:X O *D sky130_fd_sc_hd__buf_16
*CAP
1 mgmt_gpio_in 0.000619609
2 *453:X 0.000221995
3 *14:22 2.16474e-05
4 *14:13 0.00137802
5 *14:8 0.00100205
6 mgmt_gpio_in zero 7.74514e-05
7 mgmt_gpio_in *18:9 0.000608868
8 mgmt_gpio_in *41:13 0.000601466
9 *14:8 *212:DIODE 1.66262e-05
10 *14:8 *32:23 1.61385e-05
11 *14:8 *41:26 0.000708617
12 *14:8 *191:6 0.000110267
13 *14:8 *191:11 0.000668253
14 *14:13 *18:9 0.000135644
15 *14:13 *41:13 5.37348e-06
16 *14:13 *41:19 0.000290443
17 *14:13 *106:7 0.00014384
18 *14:13 *138:53 0.000183456
*RES
1 *453:X *14:8 47.3214 
2 *14:8 *14:13 32.5554 
3 *14:13 mgmt_gpio_in 46.9043 
4 mgmt_gpio_in *14:22 0.0709333 
*END

*D_NET *15 0.00967329
*CONN
*P mgmt_gpio_oeb I
*I *437:A I *D sky130_fd_sc_hd__clkbuf_2
*I *212:DIODE I *D sky130_fd_sc_hd__diode_2
*CAP
1 mgmt_gpio_oeb 0.000434161
2 *437:A 0
3 *212:DIODE 0.000307245
4 *15:14 0.00103333
5 *15:11 0.00264157
6 *15:10 0.00234965
7 *212:DIODE *26:29 1.37712e-05
8 *212:DIODE *41:19 0.000100477
9 *212:DIODE *138:59 3.54783e-05
10 *15:10 pad_gpio_dm[0] 0.000106964
11 *15:10 zero 0.000158928
12 *15:10 *17:18 9.97966e-05
13 *15:10 *19:26 0.000544923
14 *15:10 *41:8 0
15 *15:11 *28:17 0.000879482
16 *15:11 *97:79 2.05042e-05
17 *15:14 *26:24 4.44719e-05
18 *15:14 *26:29 0.000190713
19 *15:14 *42:27 6.12479e-05
20 *15:14 *98:15 8.22421e-06
21 *15:14 *139:8 0.000625724
22 *14:8 *212:DIODE 1.66262e-05
*RES
1 mgmt_gpio_oeb *15:10 36.4213 
2 *15:10 *15:11 38.7357 
3 *15:11 *15:14 29.5829 
4 *15:14 *212:DIODE 42.4743 
5 *15:14 *437:A 38 
*END

*D_NET *16 0.0116799
*CONN
*P mgmt_gpio_out I
*I *438:A I *D sky130_fd_sc_hd__clkbuf_2
*I *213:DIODE I *D sky130_fd_sc_hd__diode_2
*CAP
1 mgmt_gpio_out 0.000743396
2 *438:A 0
3 *213:DIODE 0
4 *16:37 3.75889e-05
5 *16:27 0.000284428
6 *16:21 0.000816003
7 *16:16 0.00223651
8 *16:10 0.00241074
9 *16:10 *25:5 1.99109e-05
10 *16:10 *31:13 7.68252e-05
11 *16:10 *41:8 0.00121517
12 *16:16 *25:5 0.00168914
13 *16:16 *105:28 5.3304e-05
14 *16:21 *97:64 1.02133e-05
15 *16:21 *105:28 3.43144e-05
16 *16:21 *107:9 0.000915125
17 *16:21 *108:11 4.07693e-05
18 *16:21 *121:27 0.000215393
19 *16:21 *142:36 0.00026082
20 *16:27 *17:11 0.000100069
21 *16:27 *97:64 1.12863e-05
22 *16:27 *105:24 7.19692e-05
23 *16:27 *114:8 0.000339223
24 *16:27 *141:15 9.77405e-05
*RES
1 mgmt_gpio_out *16:10 43.155 
2 *16:10 *16:16 41.0454 
3 *16:16 *16:21 43.5264 
4 *16:21 *16:27 36.8771 
5 *16:27 *213:DIODE 23 
6 *16:21 *438:A 23 
7 mgmt_gpio_out *16:37 0.0709333 
*END

*D_NET *17 0.0106466
*CONN
*P one O
*I *452:X O *D sky130_fd_sc_hd__buf_16
*CAP
1 one 0
2 *452:X 0.000471154
3 *17:18 0.00119662
4 *17:11 0.00222713
5 *17:8 0.00150167
6 *17:8 *47:16 0.000280788
7 *17:8 *101:8 0
8 *17:8 *137:42 3.13912e-05
9 *17:11 *371:A 9.79925e-05
10 *17:11 *415:A 0.000172429
11 *17:11 *20:7 0.00203594
12 *17:11 *21:5 0
13 *17:11 *36:20 0.000138859
14 *17:11 *101:13 0.000214713
15 *17:11 *140:28 0.00016966
16 *17:11 *141:15 0.00064296
17 *17:18 pad_gpio_ana_en 0.000430395
18 *17:18 zero 0.000323069
19 *17:18 *20:7 0.000259211
20 *17:18 *47:19 0
21 *224:DIODE *17:8 6.03228e-05
22 *9:32 *17:11 0.000192462
23 *15:10 *17:18 9.97966e-05
24 *16:27 *17:11 0.000100069
*RES
1 *452:X *17:8 45.7264 
2 *17:8 *17:11 49.6861 
3 *17:11 *17:18 44.8079 
4 *17:18 one 8 
*END

*D_NET *18 0.00650537
*CONN
*P pad_gpio_ana_en O
*I *454:X O *D sky130_fd_sc_hd__buf_16
*CAP
1 pad_gpio_ana_en 0.000243688
2 *454:X 0
3 *18:16 3.04535e-05
4 *18:9 0.00204357
5 *18:4 0.00183033
6 *18:9 *412:A 2.83509e-05
7 *18:9 *19:17 0.000498858
8 *18:9 *22:5 0
9 *18:9 *36:8 0
10 *18:9 *137:11 0.000120344
11 *18:9 *175:7 0.000534875
12 mgmt_gpio_in *18:9 0.000608868
13 *14:13 *18:9 0.000135644
14 *17:18 pad_gpio_ana_en 0.000430395
*RES
1 *454:X *18:4 23 
2 *18:4 *18:9 44.6186 
3 *18:9 pad_gpio_ana_en 28.6032 
4 pad_gpio_ana_en *18:16 0.0709333 
*END

*D_NET *19 0.0127368
*CONN
*P pad_gpio_ana_pol O
*I *455:X O *D sky130_fd_sc_hd__buf_16
*CAP
1 pad_gpio_ana_pol 3.0422e-05
2 *455:X 0.000198909
3 *19:30 3.0422e-05
4 *19:26 0.000614701
5 *19:22 0.00131959
6 *19:17 0.00172724
7 *19:10 0.00122126
8 *19:10 *36:12 5.5792e-05
9 *19:10 *103:11 5.5792e-05
10 *19:10 *103:12 3.46013e-05
11 *19:17 *22:5 0.00100604
12 *19:17 *36:8 0.000327802
13 *19:17 *105:19 0.000448814
14 *19:22 *22:8 0.000452228
15 *19:22 *28:12 0.000580313
16 *19:26 pad_gpio_ana_sel 0.0008968
17 *19:26 pad_gpio_dm[0] 0.000180482
18 *19:26 *20:11 6.9805e-05
19 *19:26 *21:13 0.00152102
20 *19:26 *29:25 0.000760169
21 *19:26 *31:13 0.000103678
22 *19:26 *41:8 5.7171e-05
23 *15:10 *19:26 0.000544923
24 *18:9 *19:17 0.000498858
*RES
1 *455:X *19:10 41.8736 
2 *19:10 *19:17 47.2314 
3 *19:17 *19:22 49.865 
4 *19:22 *19:26 46.9518 
5 *19:26 pad_gpio_ana_pol 8 
6 pad_gpio_ana_pol *19:30 0.0709333 
*END

*D_NET *20 0.0114923
*CONN
*P pad_gpio_ana_sel O
*I *456:X O *D sky130_fd_sc_hd__buf_16
*CAP
1 pad_gpio_ana_sel 0.000223397
2 *456:X 0
3 *20:11 0.00118683
4 *20:7 0.00184763
5 *20:4 0.000884196
6 pad_gpio_ana_sel pad_gpio_out 0.000636824
7 pad_gpio_ana_sel *41:8 0.000161357
8 *20:7 *47:19 0.000490116
9 *20:7 *114:8 0.000189097
10 *20:11 pad_gpio_slow_sel 0
11 *20:11 *21:13 0.00135494
12 *20:11 *22:8 0.000695182
13 *20:11 *29:22 3.56433e-05
14 *20:11 *29:25 8.06804e-06
15 *20:11 *30:7 0.000517223
16 *17:11 *20:7 0.00203594
17 *17:18 *20:7 0.000259211
18 *19:26 pad_gpio_ana_sel 0.0008968
19 *19:26 *20:11 6.9805e-05
*RES
1 *456:X *20:4 23 
2 *20:4 *20:7 44.6836 
3 *20:7 *20:11 49.22 
4 *20:11 pad_gpio_ana_sel 35.2939 
*END

*D_NET *21 0.0106709
*CONN
*P pad_gpio_dm[0] O
*I *457:X O *D sky130_fd_sc_hd__buf_16
*CAP
1 pad_gpio_dm[0] 0.000390331
2 *457:X 0.000905083
3 *21:13 0.00100206
4 *21:10 0.00104146
5 *21:5 0.00133481
6 pad_gpio_dm[0] pad_gpio_ib_mode_sel 7.23733e-05
7 *21:5 *24:7 0.000275875
8 *21:5 *42:13 0
9 *21:5 *121:27 0.00022391
10 *21:5 *140:14 0.000563455
11 *21:5 *140:28 0
12 *21:10 *24:10 0.000990933
13 *21:10 *27:10 0.000118174
14 *21:10 *140:29 0
15 *21:13 *27:7 1.05235e-05
16 *21:13 *30:7 0.000364643
17 *21:13 *31:11 6.27766e-05
18 *21:13 *31:13 0.000151063
19 *15:10 pad_gpio_dm[0] 0.000106964
20 *17:11 *21:5 0
21 *19:26 pad_gpio_dm[0] 0.000180482
22 *19:26 *21:13 0.00152102
23 *20:11 *21:13 0.00135494
*RES
1 *457:X *21:5 42.6786 
2 *21:5 *21:10 43.5264 
3 *21:10 *21:13 43.7307 
4 *21:13 pad_gpio_dm[0] 17.8289 
*END

*D_NET *22 0.0149787
*CONN
*P pad_gpio_dm[1] O