*SPEF "ieee 1481-1999"
*DESIGN "gpio_control_block"
*DATE "11:11:11 Fri 11 11, 1111"
*VENDOR "OpenRCX"
*PROGRAM "Parallel Extraction"
*VERSION "1.0"
*DESIGN_FLOW "NAME_SCOPE LOCAL" "PIN_CAP NONE"
*DIVIDER /
*DELIMITER :
*BUS_DELIMITER []
*T_UNIT 1 NS
*C_UNIT 1 PF
*R_UNIT 1 OHM
*L_UNIT 1 HENRY

*NAME_MAP
*1 gpio_defaults[0]
*2 gpio_defaults[10]
*3 gpio_defaults[11]
*4 gpio_defaults[12]
*5 gpio_defaults[1]
*6 gpio_defaults[2]
*7 gpio_defaults[3]
*8 gpio_defaults[4]
*9 gpio_defaults[5]
*10 gpio_defaults[6]
*11 gpio_defaults[7]
*12 gpio_defaults[8]
*13 gpio_defaults[9]
*14 mgmt_gpio_in
*15 mgmt_gpio_oeb
*16 mgmt_gpio_out
*17 one
*18 pad_gpio_ana_en
*19 pad_gpio_ana_pol
*20 pad_gpio_ana_sel
*21 pad_gpio_dm[0]
*22 pad_gpio_dm[1]
*23 pad_gpio_dm[2]
*24 pad_gpio_holdover
*25 pad_gpio_ib_mode_sel
*26 pad_gpio_in
*27 pad_gpio_inenb
*28 pad_gpio_out
*29 pad_gpio_outenb
*30 pad_gpio_slow_sel
*31 pad_gpio_vtrip_sel
*32 resetn
*33 resetn_out
*34 serial_clock
*35 serial_clock_out
*36 serial_data_in
*37 serial_data_out
*38 serial_load
*39 serial_load_out
*40 user_gpio_in
*41 user_gpio_oeb
*42 user_gpio_out
*47 zero
*48 _000_
*49 _001_
*50 _002_
*51 _003_
*52 _004_
*53 _005_
*54 _006_
*55 _007_
*56 _008_
*57 _009_
*58 _010_
*59 _011_
*60 _012_
*61 _013_
*62 _014_
*63 _015_
*64 _016_
*65 _017_
*66 _018_
*67 _019_
*68 _020_
*69 _021_
*70 _022_
*71 _023_
*72 _024_
*73 _025_
*74 _026_
*75 _041_
*76 _042_
*77 _043_
*78 _044_
*79 _045_
*80 _046_
*81 _047_
*82 _048_
*83 _049_
*84 _050_
*85 _051_
*86 _052_
*87 _053_
*88 _054_
*89 _055_
*90 _056_
*91 _057_
*92 clknet_0_serial_clock
*93 clknet_0_serial_load
*94 clknet_1_0__leaf_serial_clock
*95 clknet_1_0__leaf_serial_load
*96 gpio_logic1
*97 gpio_outenb
*98 mgmt_ena
*99 net1
*100 net10
*101 net11
*102 net12
*103 net13
*104 net14
*105 net15
*106 net16
*107 net17
*108 net18
*109 net19
*110 net2
*111 net20
*112 net21
*113 net22
*114 net23
*115 net24
*116 net25
*117 net26
*118 net27
*119 net28
*120 net29
*121 net3
*122 net30
*123 net31
*124 net32
*125 net33
*126 net34
*127 net35
*128 net36
*129 net37
*130 net38
*131 net39
*132 net4
*133 net40
*134 net41
*135 net42
*136 net43
*137 net44
*138 net45
*139 net46
*140 net47
*141 net48
*142 net49
*143 net5
*144 net50
*145 net51
*146 net52
*147 net53
*148 net54
*149 net55
*150 net56
*151 net57
*152 net58
*153 net6
*154 net7
*155 net8
*156 net9
*157 one_buffered
*158 serial_clock_out_buffered
*159 serial_load_out_buffered
*160 shift_register\[0\]
*161 shift_register\[10\]
*162 shift_register\[11\]
*163 shift_register\[12\]
*164 shift_register\[1\]
*165 shift_register\[2\]
*166 shift_register\[3\]
*167 shift_register\[4\]
*168 shift_register\[5\]
*169 shift_register\[6\]
*170 shift_register\[7\]
*171 shift_register\[8\]
*172 shift_register\[9\]
*173 zero_buffered
*174 ANTENNA__061__A0
*175 ANTENNA__062__B
*176 ANTENNA__068__B
*177 ANTENNA__069__B
*178 ANTENNA__070__B
*179 ANTENNA__071__B
*180 ANTENNA__072__B
*181 ANTENNA__073__B
*182 ANTENNA__074__B
*183 ANTENNA__075__B
*184 ANTENNA__076__B
*185 ANTENNA__077__B
*186 ANTENNA__078__B
*187 ANTENNA__079__B
*188 ANTENNA__080__B
*189 ANTENNA__081__B
*190 ANTENNA__082__A
*191 ANTENNA__082__B
*192 ANTENNA__083__B
*193 ANTENNA__084__B
*194 ANTENNA__085__B
*195 ANTENNA__086__B
*196 ANTENNA__087__B
*197 ANTENNA__088__B
*198 ANTENNA__089__B
*199 ANTENNA__090__B
*200 ANTENNA__091__B
*201 ANTENNA__092__B
*202 ANTENNA__093__B
*203 ANTENNA_clkbuf_0_serial_clock_A
*204 ANTENNA_clkbuf_0_serial_load_A
*205 ANTENNA_fanout27_A
*206 ANTENNA_fanout28_A
*207 ANTENNA_fanout29_A
*208 ANTENNA_input1_A
*209 ANTENNA_input2_A
*210 ANTENNA_input3_A
*211 ANTENNA_input4_A
*212 ANTENNA_input5_A
*213 FILLER_0_27
*214 FILLER_0_31
*215 FILLER_0_57
*216 FILLER_0_85
*217 FILLER_0_95
*218 FILLER_12_29
*219 FILLER_13_99
*220 FILLER_15_57
*221 FILLER_15_71
*222 FILLER_17_57
*223 FILLER_17_99
*224 FILLER_1_34
*225 FILLER_3_80
*226 FILLER_3_89
*227 FILLER_3_99
*228 FILLER_4_60
*229 FILLER_5_80
*230 FILLER_5_99
*231 PHY_0
*232 PHY_1
*233 PHY_10
*234 PHY_11
*235 PHY_12
*236 PHY_13
*237 PHY_14
*238 PHY_15
*239 PHY_16
*240 PHY_17
*241 PHY_18
*242 PHY_19
*243 PHY_2
*244 PHY_20
*245 PHY_21
*246 PHY_22
*247 PHY_23
*248 PHY_24
*249 PHY_25
*250 PHY_26
*251 PHY_27
*252 PHY_28
*253 PHY_29
*254 PHY_3
*255 PHY_30
*256 PHY_31
*257 PHY_32
*258 PHY_33
*259 PHY_34
*260 PHY_35
*261 PHY_36
*262 PHY_37
*263 PHY_38
*264 PHY_39
*265 PHY_4
*266 PHY_40
*267 PHY_41
*268 PHY_5
*269 PHY_6
*270 PHY_7
*271 PHY_8
*272 PHY_9
*273 TAP_42
*274 TAP_43
*275 TAP_44
*276 TAP_45
*277 TAP_46
*278 TAP_47
*279 TAP_48
*280 TAP_49
*281 TAP_50
*282 TAP_51
*283 TAP_52
*284 TAP_53
*285 TAP_54
*286 TAP_55
*287 TAP_56
*288 TAP_57
*289 TAP_58
*290 TAP_59
*291 TAP_60
*292 TAP_61
*293 TAP_62
*294 TAP_63
*295 TAP_64
*296 TAP_65
*297 TAP_66
*298 TAP_67
*299 TAP_68
*300 TAP_69
*301 TAP_70
*302 TAP_71
*303 TAP_72
*304 TAP_73
*305 _058__1
*306 _059__14
*307 _060_
*308 _061_
*309 _062_
*310 _063_
*311 _064_
*312 _065_
*313 _066_
*314 _067_
*315 _068_
*316 _069_
*317 _070_
*318 _071_
*319 _072_
*320 _073_
*321 _074_
*322 _075_
*323 _076_
*324 _077_
*325 _078_
*326 _079_
*327 _080_
*328 _081_
*329 _082_
*330 _083_
*331 _084_
*332 _085_
*333 _086_
*334 _087_
*335 _088_
*336 _089_
*337 _090_
*338 _091_
*339 _092_
*340 _093_
*341 _094__2
*342 _095__3
*343 _096__4
*344 _097__5
*345 _098__6
*346 _099__7
*347 _100__8
*348 _101__9
*349 _102__10
*350 _103__11
*351 _104__12
*352 _105__13
*353 _106_
*354 _107_
*355 _108_
*356 _109_
*357 _110_
*358 _111_
*359 _112_
*360 _113_
*361 _114_
*362 _115_
*363 _116_
*364 _117_
*365 _118_
*366 _119_
*367 _120_
*368 _121_
*369 _122_
*370 _123_
*371 _124_
*372 _125_
*373 _126_
*374 _127_
*375 _128_
*376 _129_
*377 _130_
*378 _131_
*379 _132_
*380 _133_
*381 _134_
*382 clkbuf_0_serial_clock
*383 clkbuf_0_serial_load
*384 clkbuf_1_0__f_serial_clock
*385 clkbuf_1_0__f_serial_load
*386 clkbuf_1_1__f_serial_clock
*387 clkbuf_1_1__f_serial_load
*388 const_source
*389 fanout23
*390 fanout24
*391 fanout25
*392 fanout26
*393 fanout27
*394 fanout28
*395 fanout29
*396 fanout30
*397 fanout31
*398 gpio_logic_high
*399 hold1
*400 hold10
*401 hold11
*402 hold12
*403 hold13
*404 hold2
*405 hold3
*406 hold4
*407 hold5
*408 hold6
*409 hold7
*410 hold8
*411 hold9
*412 input1
*413 input2
*414 input3
*415 input4
*416 input5
*417 one_buffer
*418 output10
*419 output11
*420 output12
*421 output13
*422 output14
*423 output15
*424 output16
*425 output17
*426 output18
*427 output19
*428 output20
*429 output21
*430 output22
*431 output6
*432 output7
*433 output8
*434 output9
*435 serial_clock_out_buffer
*436 serial_load_out_buffer
*437 spare_cell
*438 zero_buffer

*PORTS
gpio_defaults[0] I
gpio_defaults[10] I
gpio_defaults[11] I
gpio_defaults[12] I
gpio_defaults[1] I
gpio_defaults[2] I
gpio_defaults[3] I
gpio_defaults[4] I
gpio_defaults[5] I
gpio_defaults[6] I
gpio_defaults[7] I
gpio_defaults[8] I
gpio_defaults[9] I
mgmt_gpio_in O
mgmt_gpio_oeb I
mgmt_gpio_out I
one O
pad_gpio_ana_en O
pad_gpio_ana_pol O
pad_gpio_ana_sel O
pad_gpio_dm[0] O
pad_gpio_dm[1] O
pad_gpio_dm[2] O
pad_gpio_holdover O
pad_gpio_ib_mode_sel O
pad_gpio_in I
pad_gpio_inenb O
pad_gpio_out O
pad_gpio_outenb O
pad_gpio_slow_sel O
pad_gpio_vtrip_sel O
resetn I
resetn_out O
serial_clock I
serial_clock_out O
serial_data_in I
serial_data_out O
serial_load I
serial_load_out O
user_gpio_in O
user_gpio_oeb I
user_gpio_out I
zero O

*D_NET *1 0.0248241
*CONN
*P gpio_defaults[0] I
*I *315:B I *D sky130_fd_sc_hd__or2_0
*I *316:B I *D sky130_fd_sc_hd__nand2b_2
*I *176:DIODE I *D sky130_fd_sc_hd__diode_2
*I *177:DIODE I *D sky130_fd_sc_hd__diode_2
*CAP
1 gpio_defaults[0] 0.00366861
2 *315:B 0.000185063
3 *316:B 0.000195786
4 *176:DIODE 0
5 *177:DIODE 4.30055e-06
6 *1:53 0.000608775
7 *1:48 0.00108625
8 *1:38 0.000772727
9 *1:27 0.00200668
10 *1:16 0.00575659
11 *177:DIODE *361:SET_B 2.44754e-05
12 *315:B *315:A 0.000363857
13 *315:B *42:15 0.000251531
14 *315:B *49:8 0.00018221
15 *315:B *164:15 5.79413e-06
16 *316:B *332:A_N 1.57659e-05
17 *316:B *50:7 5.58003e-05
18 *316:B *66:7 9.66585e-05
19 *316:B *118:73 5.56279e-05
20 *316:B *119:33 0.000177242
21 *316:B *143:7 0.000567499
22 *1:16 serial_clock_out 4.42081e-05
23 *1:16 serial_data_out 0.00146319
24 *1:16 *5:11 0.000170215
25 *1:16 *6:7 2.10797e-06
26 *1:16 *8:19 1.12725e-05
27 *1:16 *13:13 0.000409055
28 *1:16 *38:8 1.32168e-05
29 *1:16 *113:22 1.35288e-05
30 *1:16 *116:38 2.06164e-05
31 *1:16 *116:76 0.000269968
32 *1:16 *118:6 0.000302592
33 *1:16 *144:16 0.00011687
34 *1:27 pad_gpio_dm[1] 0
35 *1:27 *361:SET_B 0.000269668
36 *1:27 *3:24 0.000819113
37 *1:27 *55:10 0.000120879
38 *1:27 *64:8 0.000111873
39 *1:27 *65:12 5.8404e-05
40 *1:27 *95:54 3.12608e-05
41 *1:27 *101:20 0.000121157
42 *1:27 *105:18 1.69221e-05
43 *1:27 *107:12 0.000316342
44 *1:27 *114:69 4.51815e-05
45 *1:27 *131:11 0.000857815
46 *1:27 *164:15 9.24039e-05
47 *1:27 *172:8 5.38616e-05
48 *1:38 *361:SET_B 1.79668e-05
49 *1:38 *3:29 4.90185e-05
50 *1:38 *101:20 0.000122337
51 *1:48 *3:29 0.000382824
52 *1:48 *3:37 0.000143239
53 *1:48 *39:7 4.96303e-05
54 *1:48 *101:20 0.000107232
55 *1:48 *119:38 0.000262146
56 *1:48 *119:46 0.000292885
57 *1:48 *155:10 6.01614e-06
58 *1:53 *3:37 0.000549925
59 *1:53 *15:21 0.000122128
60 *1:53 *16:16 1.71761e-05
61 *1:53 *18:9 0.000318095
62 *1:53 *173:15 0.000550501
*RES
1 gpio_defaults[0] *1:16 33.6433 
2 *1:16 *1:27 37.746 
3 *1:27 *177:DIODE 38.3211 
4 *1:27 *1:38 2.35107 
5 *1:38 *1:48 41.1339 
6 *1:48 *1:53 28.7646 
7 *1:53 *176:DIODE 23 
8 *1:38 *316:B 44.8357 
9 *1:16 *315:B 44.3489 
*END

*D_NET *2 0.0123375
*CONN
*P gpio_defaults[10] I
*I *192:DIODE I *D sky130_fd_sc_hd__diode_2
*I *191:DIODE I *D sky130_fd_sc_hd__diode_2
*I *329:B I *D sky130_fd_sc_hd__or2_0
*I *330:B I *D sky130_fd_sc_hd__nand2b_2
*CAP
1 gpio_defaults[10] 0.0020608
2 *192:DIODE 0.000146205
3 *191:DIODE 0.00064114
4 *329:B 7.5384e-05
5 *330:B 0
6 *2:33 0.00083334
7 *2:24 0.000138698
8 *2:22 0.00055627
9 *2:19 0.00244898
10 *191:DIODE *310:C 7.37372e-05
11 *191:DIODE *29:7 6.06617e-05
12 *191:DIODE *63:8 9.41704e-05
13 *191:DIODE *77:7 2.02872e-05
14 *191:DIODE *122:76 6.2403e-05
15 *192:DIODE *330:A_N 2.3122e-05
16 *192:DIODE *64:8 0.000100024
17 *192:DIODE *100:21 4.12078e-05
18 *329:B *361:SET_B 9.43014e-05
19 *329:B *29:7 0.000184861
20 *329:B *107:12 3.13857e-05
21 *329:B *122:76 5.9824e-05
22 *2:19 pad_gpio_slow_sel 6.92544e-05
23 *2:19 pad_gpio_vtrip_sel 2.46625e-06
24 *2:19 serial_clock_out 0.000353641
25 *2:19 *378:CLK 0.000402217
26 *2:19 *3:11 0
27 *2:19 *11:19 0
28 *2:19 *12:44 0
29 *2:19 *13:13 0
30 *2:19 *13:20 0.000147131
31 *2:19 *30:6 0.000355707
32 *2:19 *37:6 0.000543288
33 *2:19 *57:15 0
34 *2:19 *95:67 0.00016952
35 *2:19 *109:19 9.19719e-05
36 *2:19 *114:69 0.000571732
37 *2:19 *118:22 5.78179e-05
38 *2:19 *145:22 5.24781e-05
39 *2:19 *148:17 0.000315189
40 *2:19 *158:32 8.4263e-05
41 *2:19 *158:47 0.000476491
42 *2:19 *165:12 0
43 *2:22 *330:A_N 4.05745e-05
44 *2:22 *100:21 0.000137056
45 *2:22 *118:56 0.000356126
46 *2:22 *118:73 4.67488e-05
47 *2:33 *330:A_N 9.41704e-05
48 *2:33 *361:SET_B 0.000150872
49 *2:33 *107:12 7.19778e-05
*RES
1 gpio_defaults[10] *2:19 49.9927 
2 *2:19 *2:22 22.2914 
3 *2:22 *2:24 0.497143 
4 *2:24 *330:B 23 
5 *2:24 *2:33 18.3557 
6 *2:33 *329:B 41.2521 
7 *2:33 *191:DIODE 46.2443 
8 *2:22 *192:DIODE 26.0036 
*END

*D_NET *3 0.014691
*CONN
*P gpio_defaults[11] I
*I *332:B I *D sky130_fd_sc_hd__nand2b_2
*I *331:B I *D sky130_fd_sc_hd__or2_0
*I *193:DIODE I *D sky130_fd_sc_hd__diode_2
*I *194:DIODE I *D sky130_fd_sc_hd__diode_2
*CAP
1 gpio_defaults[11] 0.00090998
2 *332:B 0
3 *331:B 0
4 *193:DIODE 0
5 *194:DIODE 3.6047e-05
6 *3:37 0.00047119
7 *3:29 0.000738314
8 *3:24 0.00115174
9 *3:16 0.00181211
10 *3:11 0.00187352
11 *194:DIODE *5:47 2.93431e-05
12 *3:11 *354:SET_B 0.000270663
13 *3:11 *4:11 0.000165653
14 *3:11 *115:15 0.000801002
15 *3:11 *118:22 7.22099e-05
16 *3:11 *123:32 0.000409301
17 *3:11 *139:8 0.000156225
18 *3:16 *317:A 0.000267765
19 *3:16 *109:13 5.24162e-05
20 *3:24 *332:A_N 5.3304e-05
21 *3:24 *65:12 0.00113901
22 *3:24 *107:12 0.000452294
23 *3:24 *108:10 7.13337e-05
24 *3:24 *122:76 0.00041707
25 *3:24 *143:7 1.46286e-05
26 *3:24 *148:9 6.77278e-05
27 *3:24 *172:8 0.000261306
28 *3:29 *332:A_N 0.000135037
29 *3:29 *361:SET_B 3.46013e-05
30 *3:29 *66:7 9.41704e-05
31 *3:29 *101:20 0.000123569
32 *3:29 *119:38 5.10721e-05
33 *3:29 *143:7 1.21972e-05
34 *3:37 *15:21 3.52734e-05
35 *3:37 *101:20 0.000381853
36 *3:37 *122:76 0.000184932
37 *1:27 *3:24 0.000819113
38 *1:38 *3:29 4.90185e-05
39 *1:48 *3:29 0.000382824
40 *1:48 *3:37 0.000143239
41 *1:53 *3:37 0.000549925
42 *2:19 *3:11 0
*RES
1 gpio_defaults[11] *3:11 49.5957 
2 *3:11 *3:16 41.1029 
3 *3:16 *3:24 39.7743 
4 *3:24 *3:29 22.7057 
5 *3:29 *3:37 27.18 
6 *3:37 *194:DIODE 23.6214 
7 *3:37 *193:DIODE 23 
8 *3:29 *331:B 38 
9 *3:24 *332:B 23 
*END

*D_NET *4 0.0177308
*CONN
*P gpio_defaults[12] I
*I *334:B I *D sky130_fd_sc_hd__nand2b_2
*I *333:B I *D sky130_fd_sc_hd__or2_0
*I *196:DIODE I *D sky130_fd_sc_hd__diode_2
*I *195:DIODE I *D sky130_fd_sc_hd__diode_2
*CAP
1 gpio_defaults[12] 0.00130897
2 *334:B 0.000193761
3 *333:B 9.35606e-05
4 *196:DIODE 0
5 *195:DIODE 8.10849e-05
6 *4:44 0.000606749
7 *4:32 0.000415696
8 *4:27 0.00122935
9 *4:17 0.00185238
10 *4:11 0.00258603
11 *195:DIODE *153:10 2.34077e-05
12 *333:B *333:A 2.83509e-05
13 *333:B *26:8 0.000179725
14 *333:B *67:7 6.17437e-06
15 *334:B *414:A 2.76401e-05
16 *334:B *67:8 0.000135854
17 *334:B *99:8 5.01232e-06
18 *334:B *119:46 8.36198e-05
19 *334:B *120:8 0.000199388
20 *4:11 *11:19 1.65132e-05
21 *4:11 *12:50 3.01385e-05
22 *4:11 *32:12 0.000147218
23 *4:11 *51:11 1.10742e-05
24 *4:11 *54:8 0.000107251
25 *4:11 *61:10 6.46463e-05
26 *4:11 *115:15 3.21898e-05
27 *4:11 *123:32 0.00107923
28 *4:11 *139:8 0.000155329
29 *4:11 *142:17 0
30 *4:11 *162:8 0.00035268
31 *4:17 *211:DIODE 0.000309402
32 *4:17 *12:50 8.22421e-06
33 *4:17 *13:31 0.000112317
34 *4:17 *13:42 2.71929e-05
35 *4:17 *32:12 0.000789688
36 *4:17 *74:6 0.00059375
37 *4:17 *104:10 0.0013901
38 *4:17 *115:20 2.4982e-06
39 *4:17 *136:6 0.000140436
40 *4:17 *156:10 7.18331e-05
41 *4:27 *380:A 9.77405e-05
42 *4:27 *419:A 6.37432e-05
43 *4:27 *119:16 4.53137e-05
44 *4:27 *132:13 9.77922e-06
45 *4:27 *153:5 0.00113614
46 *4:27 *173:15 0.000640247
47 *4:32 *5:40 0.000416871
48 *4:32 *122:15 0.000100547
49 *4:32 *122:76 0.000180675
50 *4:44 *380:A 9.66668e-05
51 *4:44 *414:A 3.67392e-05
52 *4:44 *26:8 5.3304e-05
53 *4:44 *26:14 3.46013e-05
54 *4:44 *67:7 9.97435e-06
55 *4:44 *120:8 2.58781e-05
56 *4:44 *121:7 0.000118444
57 *3:11 *4:11 0.000165653
*RES
1 gpio_defaults[12] *4:11 24.7018 
2 *4:11 *4:17 31.1646 
3 *4:17 *195:DIODE 39.5536 
4 *4:17 *4:27 30.8671 
5 *4:27 *4:32 38.9486 
6 *4:32 *196:DIODE 23 
7 *4:27 *4:44 20.4479 
8 *4:44 *333:B 40.0507 
9 *4:44 *334:B 43.7793 
*END

*D_NET *5 0.0307991
*CONN
*P gpio_defaults[1] I
*I *328:B I *D sky130_fd_sc_hd__nand2b_2
*I *189:DIODE I *D sky130_fd_sc_hd__diode_2
*I *188:DIODE I *D sky130_fd_sc_hd__diode_2
*I *327:B I *D sky130_fd_sc_hd__or2_0
*CAP
1 gpio_defaults[1] 0.000502235
2 *328:B 0
3 *189:DIODE 0
4 *188:DIODE 0.000374327
5 *327:B 8.93235e-05
6 *5:67 0.00120857
7 *5:47 0.00186121
8 *5:40 0.00500801
9 *5:28 0.00699842
10 *5:11 0.00286028
11 *188:DIODE *205:DIODE 4.77213e-05
12 *188:DIODE *384:A 7.92449e-05
13 *188:DIODE *16:16 0.000634288
14 *188:DIODE *94:7 0.000276972
15 *327:B *327:A 5.82853e-05
16 *5:11 *179:DIODE 2.23467e-05
17 *5:11 *367:CLK 0.000226087
18 *5:11 *6:7 0.000574482
19 *5:11 *6:27 0.000876698
20 *5:11 *94:64 0.000220337
21 *5:11 *94:71 0.000221527
22 *5:11 *118:6 0.00029717
23 *5:11 *152:8 5.36496e-06
24 *5:11 *168:8 8.89728e-05
25 *5:28 pad_gpio_vtrip_sel 0.00282487
26 *5:28 *327:A 0.000257984
27 *5:28 *379:RESET_B 0
28 *5:28 *6:27 7.28704e-06
29 *5:28 *8:57 7.18396e-05
30 *5:28 *13:84 8.84148e-05
31 *5:28 *32:12 5.90917e-05
32 *5:28 *61:5 0.000138996
33 *5:28 *93:7 0.000316846
34 *5:28 *94:60 0.000355686
35 *5:28 *117:13 0.000357713
36 *5:28 *148:9 0.000327931
37 *5:28 *148:17 0.00114977
38 *5:28 *159:78 8.03957e-05
39 *5:40 one 0
40 *5:40 pad_gpio_ana_pol 2.03754e-05
41 *5:40 *15:10 0.000126008
42 *5:40 *48:6 0.00012381
43 *5:40 *99:8 0.000102692
44 *5:40 *121:20 4.80465e-05
45 *5:40 *122:7 4.08664e-05
46 *5:40 *122:11 9.77405e-05
47 *5:40 *122:76 1.63009e-05
48 *5:40 *123:65 6.78592e-05
49 *5:47 one 0.000104089
50 *5:47 *15:21 1.21972e-05
51 *5:47 *17:8 3.98887e-05
52 *5:47 *19:8 9.11847e-06
53 *5:47 *47:14 0.000110184
54 *5:67 serial_clock_out 0.000299712
55 *5:67 *359:SET_B 5.3304e-05
56 *5:67 *34:10 0.000135566
57 *5:67 *76:8 6.85548e-05
58 *5:67 *79:9 7.06542e-05
59 *5:67 *97:9 6.70361e-05
60 *194:DIODE *5:47 2.93431e-05
61 *1:16 *5:11 0.000170215
62 *4:32 *5:40 0.000416871
*RES
1 gpio_defaults[1] *5:11 35.735 
2 *5:11 *327:B 24.5743 
3 *5:11 *5:28 47.0745 
4 *5:28 *5:40 45.0492 
5 *5:40 *5:47 49.3264 
6 *5:47 *188:DIODE 33.15 
7 *5:40 *189:DIODE 23 
8 *5:28 *5:67 35.5391 
9 *5:67 *328:B 23 
*END

*D_NET *6 0.0163163
*CONN
*P gpio_defaults[2] I
*I *318:B I *D sky130_fd_sc_hd__nand2b_2
*I *178:DIODE I *D sky130_fd_sc_hd__diode_2
*I *317:B I *D sky130_fd_sc_hd__or2_0
*I *179:DIODE I *D sky130_fd_sc_hd__diode_2
*CAP
1 gpio_defaults[2] 0.000414363
2 *318:B 0
3 *178:DIODE 0
4 *317:B 7.70953e-05
5 *179:DIODE 0.000111897
6 *6:59 0.000460764
7 *6:51 0.000445893
8 *6:41 0.00112803
9 *6:27 0.00272466
10 *6:7 0.00295245
11 *317:B *317:A 2.64616e-05
12 *317:B *109:13 2.64616e-05
13 *317:B *115:15 6.85548e-05
14 *317:B *123:32 6.85548e-05
15 *6:7 *7:7 0
16 *6:7 *144:16 4.93525e-05
17 *6:27 resetn_out 0.00153357
18 *6:27 *7:7 0
19 *6:27 *8:19 0
20 *6:27 *8:57 0.000138503
21 *6:27 *11:19 0.000729062
22 *6:27 *13:84 0.000140643
23 *6:27 *94:60 4.62591e-05
24 *6:27 *144:16 0.000262762
25 *6:27 *152:8 0.000123154
26 *6:41 resetn_out 0.000359169
27 *6:41 *8:57 0.00014642
28 *6:51 *353:SET_B 5.96346e-06
29 *6:51 *8:57 0.000238697
30 *6:51 *32:12 0.000232442
31 *6:51 *42:29 0.000157625
32 *6:51 *60:5 0.000346761
33 *6:51 *105:18 3.13911e-05
34 *6:51 *134:8 0.000155098
35 *6:51 *149:25 4.67137e-05
36 *6:51 *172:8 5.3304e-05
37 *6:59 *318:A_N 0.000146885
38 *6:59 *42:29 0.000524449
39 *6:59 *134:8 0.000860005
40 *1:16 *6:7 2.10797e-06
41 *5:11 *179:DIODE 2.23467e-05
42 *5:11 *6:7 0.000574482
43 *5:11 *6:27 0.000876698
44 *5:28 *6:27 7.28704e-06
*RES
1 gpio_defaults[2] *6:7 9.87036 
2 *6:7 *179:DIODE 39.4189 
3 *6:7 *6:27 25.798 
4 *6:27 *317:B 47.6468 
5 *6:27 *6:41 8.74293 
6 *6:41 *6:51 38.725 
7 *6:51 *178:DIODE 23 
8 *6:41 *6:59 27.2939 
9 *6:59 *318:B 23 
*END

*D_NET *7 0.0133861
*CONN
*P gpio_defaults[3] I
*I *323:B I *D sky130_fd_sc_hd__or2_0
*I *184:DIODE I *D sky130_fd_sc_hd__diode_2
*I *185:DIODE I *D sky130_fd_sc_hd__diode_2
*I *324:B I *D sky130_fd_sc_hd__nand2b_2
*CAP
1 gpio_defaults[3] 0.00173038
2 *323:B 4.31705e-05
3 *184:DIODE 0.000203035
4 *185:DIODE 0
5 *324:B 2.93729e-05
6 *7:42 0.000659399
7 *7:35 0.00110854
8 *7:28 0.00063887
9 *7:14 0.00113551
10 *7:7 0.00248693
11 *184:DIODE *158:11 0.000272367
12 *323:B *39:7 5.79559e-05
13 *323:B *57:11 7.14462e-05
14 *323:B *116:21 6.63649e-05
15 *324:B *364:CLK_N 1.92324e-05
16 *7:7 *379:RESET_B 0
17 *7:7 *117:24 0.00145488
18 *7:7 *122:51 0.000485015
19 *7:7 *144:16 9.83991e-05
20 *7:7 *152:8 0.000206682
21 *7:14 *324:A_N 1.61361e-05
22 *7:14 *391:A 0.000466999
23 *7:14 *436:A 0
24 *7:14 *9:20 2.19403e-05
25 *7:14 *58:7 1.23293e-05
26 *7:28 *12:26 0.000140077
27 *7:28 *57:11 1.35999e-05
28 *7:28 *58:7 1.85916e-05
29 *7:28 *116:21 0.00015599
30 *7:28 *125:10 4.19479e-05
31 *7:28 *135:15 7.52305e-05
32 *7:35 *363:SET_B 0.000447365
33 *7:35 *72:8 0.000193034
34 *7:35 *95:19 6.12484e-05
35 *7:42 *9:38 0.00021425
36 *7:42 *95:19 7.4632e-05
37 *7:42 *122:30 0.000163102
38 *7:42 *125:10 0.00013658
39 *7:42 *133:10 5.02992e-05
40 *7:42 *133:12 5.20619e-06
41 *7:42 *158:11 0.000309966
42 *6:7 *7:7 0
43 *6:27 *7:7 0
*RES
1 gpio_defaults[3] *7:7 42.0914 
2 *7:7 *7:14 27.0971 
3 *7:14 *324:B 23.8493 
4 *7:14 *7:28 36.8357 
5 *7:28 *7:35 36.6286 
6 *7:35 *7:42 42.9464 
7 *7:42 *185:DIODE 23 
8 *7:35 *184:DIODE 26.0036 
9 *7:28 *323:B 24.5743 
*END

*D_NET *8 0.0203663
*CONN
*P gpio_defaults[4] I
*I *326:B I *D sky130_fd_sc_hd__nand2b_2
*I *187:DIODE I *D sky130_fd_sc_hd__diode_2
*I *325:B I *D sky130_fd_sc_hd__or2_0
*I *186:DIODE I *D sky130_fd_sc_hd__diode_2
*CAP
1 gpio_defaults[4] 0.000963333
2 *326:B 0.000343655
3 *187:DIODE 0
4 *325:B 4.17433e-05
5 *186:DIODE 0.00037997
6 *8:57 0.00268053
7 *8:27 0.00159023
8 *8:23 0.00193396
9 *8:19 0.00166293
10 *8:15 0.00331783
11 *8:13 0.000963333
12 *186:DIODE *384:A 3.26241e-05
13 *186:DIODE *94:7 0.000682361
14 *326:B *326:A_N 0.000148185
15 *326:B *60:5 0.000173206
16 *8:13 *429:A 0
17 *8:13 *430:A 5.5792e-05
18 *8:13 *9:10 0.000179555
19 *8:13 *10:20 0.000394242
20 *8:13 *118:14 1.94813e-05
21 *8:13 *123:44 0.000360062
22 *8:13 *130:13 0.0001065
23 *8:13 *138:6 0.000166982
24 *8:13 *165:6 5.78554e-05
25 *8:13 *167:6 2.33476e-05
26 *8:19 resetn_out 6.63936e-05
27 *8:19 *94:64 2.33476e-05
28 *8:19 *116:38 0.00012966
29 *8:19 *116:76 6.42861e-05
30 *8:23 *13:84 0.000454612
31 *8:23 *94:64 5.04743e-05
32 *8:23 *168:8 0.000189592
33 *8:27 *114:39 5.74915e-05
34 *8:57 resetn_out 0.000178126
35 *8:57 *357:SET_B 0.000357791
36 *8:57 *11:19 0.000732514
37 *8:57 *32:12 0.000375136
38 *8:57 *34:10 5.0423e-05
39 *8:57 *65:12 2.33476e-05
40 *8:57 *77:19 2.11157e-05
41 *8:57 *116:76 0.000395328
42 *8:57 *123:25 4.8098e-05
43 *8:57 *133:12 0.000154551
44 *8:57 *148:17 0.000109619
45 *1:16 *8:19 1.12725e-05
46 *5:28 *8:57 7.18396e-05
47 *6:27 *8:19 0
48 *6:27 *8:57 0.000138503
49 *6:41 *8:57 0.00014642
50 *6:51 *8:57 0.000238697
*RES
1 gpio_defaults[4] *8:13 49.1089 
2 *8:13 *8:15 8 
3 *8:15 *8:19 10.4379 
4 *8:19 *8:23 17.4414 
5 *8:23 *8:27 42.9643 
6 *8:27 *186:DIODE 33.15 
7 *8:23 *325:B 38.6214 
8 *8:19 *187:DIODE 38 
9 *8:15 *8:57 49.5742 
10 *8:57 *326:B 28.8829 
*END

*D_NET *9 0.0136983
*CONN
*P gpio_defaults[5] I
*I *335:B I *D sky130_fd_sc_hd__or2_0
*I *198:DIODE I *D sky130_fd_sc_hd__diode_2
*I *197:DIODE I *D sky130_fd_sc_hd__diode_2
*I *336:B I *D sky130_fd_sc_hd__nand2b_2
*CAP
1 gpio_defaults[5] 0.000992369
2 *335:B 0
3 *198:DIODE 6.02365e-05
4 *197:DIODE 0
5 *336:B 0
6 *9:38 0.0003567
7 *9:24 0.000765286
8 *9:20 0.00106934
9 *9:13 0.0011079
10 *9:10 0.00149975
11 *198:DIODE *12:32 5.76359e-05
12 *198:DIODE *159:40 0.000174761
13 *9:10 *367:RESET_B 0.000124109
14 *9:10 *368:RESET_B 7.15849e-05
15 *9:10 *10:20 0.000176447
16 *9:10 *94:60 0.000321974
17 *9:10 *95:67 0.000583377
18 *9:10 *116:48 0.000219686
19 *9:10 *117:11 0.000123184
20 *9:10 *126:7 0.000695525
21 *9:10 *159:78 0.00138779
22 *9:13 *114:39 9.13954e-05
23 *9:13 *152:8 0.00048424
24 *9:13 *168:8 6.94249e-05
25 *9:20 *391:A 0.000532134
26 *9:24 *10:26 0.000480951
27 *9:24 *10:29 6.51997e-06
28 *9:24 *114:19 0.000330783
29 *9:24 *119:11 0.000349495
30 *9:24 *159:8 0.000134341
31 *9:24 *159:15 0.000332353
32 *9:38 *200:DIODE 0.000100486
33 *9:38 *12:32 3.26241e-05
34 *9:38 *70:10 0.000182049
35 *9:38 *119:11 1.56542e-05
36 *9:38 *133:10 0.000160125
37 *9:38 *159:40 0.000192342
38 *7:14 *9:20 2.19403e-05
39 *7:42 *9:38 0.00021425
40 *8:13 *9:10 0.000179555
*RES
1 gpio_defaults[5] *9:10 46.2993 
2 *9:10 *9:13 27.1179 
3 *9:13 *9:20 43.3193 
4 *9:20 *9:24 31.0743 
5 *9:24 *336:B 23 
6 *9:24 *9:38 38.0371 
7 *9:38 *197:DIODE 23 
8 *9:38 *198:DIODE 25.0507 
9 *9:13 *335:B 38 
*END

*D_NET *10 0.0123545
*CONN
*P gpio_defaults[6] I
*I *337:B I *D sky130_fd_sc_hd__or2_0
*I *338:B I *D sky130_fd_sc_hd__nand2b_2
*I *199:DIODE I *D sky130_fd_sc_hd__diode_2
*I *200:DIODE I *D sky130_fd_sc_hd__diode_2
*CAP
1 gpio_defaults[6] 0.00152727
2 *337:B 2.32701e-05
3 *338:B 0.000122824
4 *199:DIODE 0
5 *200:DIODE 0.000355282
6 *10:29 0.000530916
7 *10:26 0.000558172
8 *10:21 0.0005873
9 *10:20 0.00183158
10 *200:DIODE *119:11 5.3304e-05
11 *200:DIODE *129:10 0.000110267
12 *200:DIODE *133:10 5.58003e-05
13 *200:DIODE *159:15 0.000222828
14 *200:DIODE *159:21 7.30808e-05
15 *200:DIODE *159:27 2.95423e-05
16 *200:DIODE *159:40 2.19403e-05
17 *337:B *337:A 5.3304e-05
18 *337:B *120:36 5.3304e-05
19 *338:B *338:A_N 9.41704e-05
20 *338:B *96:13 0.000204332
21 *10:20 *13:20 2.47789e-05
22 *10:20 *93:8 0.000176057
23 *10:20 *94:60 0.000123818
24 *10:20 *109:27 0.000104951
25 *10:20 *117:11 0.000849226
26 *10:20 *147:8 0.000137581
27 *10:20 *147:22 0.000143266
28 *10:20 *159:78 1.65917e-05
29 *10:20 *165:6 6.00654e-05
30 *10:20 *167:6 7.82891e-06
31 *10:21 *337:A 0.000150872
32 *10:21 *371:RESET_B 0.000546204
33 *10:21 *34:18 0.000392085
34 *10:21 *93:8 0.00011766
35 *10:21 *169:12 4.96832e-05
36 *10:26 *337:A 3.67392e-05
37 *10:26 *338:A_N 4.08664e-05
38 *10:26 *34:18 0.000585096
39 *10:26 *96:13 9.66585e-05
40 *10:26 *114:13 5.3304e-05
41 *10:26 *114:19 3.46013e-05
42 *10:26 *129:10 1.26897e-05
43 *10:26 *159:8 4.67735e-05
44 *10:29 *114:19 0.000402164
45 *10:29 *129:10 0.00047782
46 *8:13 *10:20 0.000394242
47 *9:10 *10:20 0.000176447
48 *9:24 *10:26 0.000480951
49 *9:24 *10:29 6.51997e-06
50 *9:38 *200:DIODE 0.000100486
*RES
1 gpio_defaults[6] *10:20 44.8786 
2 *10:20 *10:21 9.47679 
3 *10:21 *10:26 25.0464 
4 *10:26 *10:29 21.4836 
5 *10:29 *200:DIODE 45.4157 
6 *10:29 *199:DIODE 38 
7 *10:26 *338:B 25.5271 
8 *10:21 *337:B 38.6214 
*END

*D_NET *11 0.0124705
*CONN
*P gpio_defaults[7] I
*I *340:B I *D sky130_fd_sc_hd__nand2b_2
*I *202:DIODE I *D sky130_fd_sc_hd__diode_2
*I *201:DIODE I *D sky130_fd_sc_hd__diode_2
*I *339:B I *D sky130_fd_sc_hd__or2_0
*CAP
1 gpio_defaults[7] 0.000359316
2 *340:B 0
3 *202:DIODE 0.000104529
4 *201:DIODE 0
5 *339:B 9.71613e-05
6 *11:40 0.000547229
7 *11:27 0.000844496
8 *11:21 0.000557658
9 *11:19 0.0015908
10 *11:12 0.0016971
11 *202:DIODE *401:A 4.67488e-05
12 *202:DIODE *95:46 0.000175903
13 *339:B *339:A 9.41704e-05
14 *11:12 *319:B 0.000145163
15 *11:12 *430:A 9.67816e-05
16 *11:12 *12:7 6.94382e-05
17 *11:12 *53:5 2.43944e-05
18 *11:12 *118:14 0
19 *11:12 *123:44 6.08617e-05
20 *11:12 *130:18 3.53826e-05
21 *11:19 *13:13 0.00047364
22 *11:19 *32:12 0.000102253
23 *11:19 *37:6 0
24 *11:19 *57:15 0.000543143
25 *11:19 *109:19 2.0779e-05
26 *11:19 *113:22 4.30733e-05
27 *11:19 *115:15 0.000260161
28 *11:19 *117:40 0
29 *11:19 *123:32 0.000111567
30 *11:19 *145:22 0
31 *11:19 *165:12 0.00018522
32 *11:21 *13:31 0.00029133
33 *11:21 *13:68 1.28035e-05
34 *11:21 *32:12 0.000368493
35 *11:21 *115:15 3.39192e-05
36 *11:21 *171:8 9.89529e-06
37 *11:27 *13:31 7.26106e-05
38 *11:27 *30:6 1.23701e-05
39 *11:27 *32:12 0.000426853
40 *11:27 *154:10 0.000350321
41 *11:40 *316:A_N 6.17437e-06
42 *11:40 *41:45 0.00037483
43 *11:40 *73:8 0.000257636
44 *11:40 *119:33 0.000111243
45 *11:40 *124:6 0.000376959
46 *2:19 *11:19 0
47 *4:11 *11:19 1.65132e-05
48 *6:27 *11:19 0.000729062
49 *8:57 *11:19 0.000732514
*RES
1 gpio_defaults[7] *11:12 37.9957 
2 *11:12 *11:19 37.1736 
3 *11:19 *11:21 5.42714 
4 *11:21 *11:27 21.7529 
5 *11:27 *339:B 24.5743 
6 *11:27 *11:40 41.0821 
7 *11:40 *201:DIODE 23 
8 *11:21 *202:DIODE 40.0507 
9 *11:19 *340:B 38 
*END

*D_NET *12 0.0180731
*CONN
*P gpio_defaults[8] I
*I *319:B I *D sky130_fd_sc_hd__or2_0
*I *320:B I *D sky130_fd_sc_hd__nand2b_2
*I *180:DIODE I *D sky130_fd_sc_hd__diode_2
*I *181:DIODE I *D sky130_fd_sc_hd__diode_2
*CAP
1 gpio_defaults[8] 0.000178986
2 *319:B 0.000136112
3 *320:B 0
4 *180:DIODE 0
5 *181:DIODE 0.00122515
6 *12:50 0.000204517
7 *12:44 0.000721342
8 *12:32 0.000467525
9 *12:26 0.00108764
10 *12:14 0.00206077
11 *12:11 0.00164603
12 *12:7 0.0012288
13 *181:DIODE *371:CLK 2.43944e-05
14 *181:DIODE *371:RESET_B 0.000219465
15 *181:DIODE *374:CLK 3.28795e-05
16 *181:DIODE *402:A 0.00022034
17 *181:DIODE *159:69 2.03764e-06
18 *181:DIODE *168:8 2.10502e-05
19 *319:B *429:A 0.000100231
20 *319:B *430:A 9.86777e-06
21 *319:B *123:44 0.000536455
22 *319:B *130:13 0.000182175
23 *12:7 *13:13 9.18059e-05
24 *12:7 *113:22 8.33238e-05
25 *12:11 *57:15 0.000262773
26 *12:11 *59:15 0.000260113
27 *12:11 *113:22 0.000749689
28 *12:11 *130:18 0
29 *12:11 *143:19 0.00110274
30 *12:14 *374:CLK 7.79323e-05
31 *12:14 *374:D 6.17437e-06
32 *12:14 *159:69 2.27677e-05
33 *12:26 *357:SET_B 0.000947246
34 *12:26 *116:21 3.95707e-06
35 *12:26 *125:10 0.0011272
36 *12:26 *135:15 2.88798e-05
37 *12:32 *363:SET_B 0.000101815
38 *12:32 *70:10 0.00014404
39 *12:32 *113:14 0.000349166
40 *12:32 *133:10 0.000121112
41 *12:32 *133:12 0.000577674
42 *12:44 *358:SET_B 9.30759e-05
43 *12:44 *374:D 6.70361e-05
44 *12:44 *57:15 0.000208899
45 *12:44 *59:15 0.000100543
46 *12:44 *95:67 0.000227473
47 *12:44 *104:7 9.30303e-05
48 *12:44 *115:19 2.64616e-05
49 *12:50 *370:RESET_B 0.000207891
50 *12:50 *375:CLK 0.000100061
51 *12:50 *54:8 2.61756e-05
52 *12:50 *103:8 7.6774e-06
53 *12:50 *115:20 5.72853e-05
54 *12:50 *118:32 1.00084e-05
55 *198:DIODE *12:32 5.76359e-05
56 *2:19 *12:44 0
57 *4:11 *12:50 3.01385e-05
58 *4:17 *12:50 8.22421e-06
59 *7:28 *12:26 0.000140077
60 *9:38 *12:32 3.26241e-05
61 *11:12 *319:B 0.000145163
62 *11:12 *12:7 6.94382e-05
*RES
1 gpio_defaults[8] *12:7 4.39143 
2 *12:7 *12:11 37.6821 
3 *12:11 *12:14 3.50071 
4 *12:14 *181:DIODE 37.9143 
5 *12:14 *12:26 47.8143 
6 *12:26 *12:32 42.9879 
7 *12:32 *180:DIODE 23 
8 *12:11 *12:44 40.3986 
9 *12:44 *12:50 34.4121 
10 *12:50 *320:B 23 
11 *12:7 *319:B 44.3593 
*END

*D_NET *13 0.0277414
*CONN
*P gpio_defaults[9] I
*I *183:DIODE I *D sky130_fd_sc_hd__diode_2
*I *322:B I *D sky130_fd_sc_hd__nand2b_2
*I *321:B I *D sky130_fd_sc_hd__or2_0
*I *182:DIODE I *D sky130_fd_sc_hd__diode_2
*CAP
1 gpio_defaults[9] 0.00237277
2 *183:DIODE 0
3 *322:B 0
4 *321:B 0
5 *182:DIODE 0
6 *13:84 0.00102498
7 *13:68 0.00131063
8 *13:52 0.000750898
9 *13:42 0.000821749
10 *13:31 0.00285587
11 *13:20 0.00433734
12 *13:13 0.00514125
13 *13:13 *37:6 0
14 *13:13 *38:8 0.000221299
15 *13:13 *113:22 0.000525144
16 *13:13 *116:35 0.000239705
17 *13:13 *117:40 1.00422e-05
18 *13:13 *144:16 2.78478e-05
19 *13:20 pad_gpio_vtrip_sel 0.00163738
20 *13:20 *116:35 5.97712e-05
21 *13:20 *120:36 8.16944e-06