*SPEF "ieee 1481-1999"
*DESIGN "gpio_control_block"
*DATE "11:11:11 Fri 11 11, 1111"
*VENDOR "OpenRCX"
*PROGRAM "Parallel Extraction"
*VERSION "1.0"
*DESIGN_FLOW "NAME_SCOPE LOCAL" "PIN_CAP NONE"
*DIVIDER /
*DELIMITER :
*BUS_DELIMITER []
*T_UNIT 1 NS
*C_UNIT 1 PF
*R_UNIT 1 OHM
*L_UNIT 1 HENRY

*NAME_MAP
*1 gpio_defaults[0]
*2 gpio_defaults[10]
*3 gpio_defaults[11]
*4 gpio_defaults[12]
*5 gpio_defaults[1]
*6 gpio_defaults[2]
*7 gpio_defaults[3]
*8 gpio_defaults[4]
*9 gpio_defaults[5]
*10 gpio_defaults[6]
*11 gpio_defaults[7]
*12 gpio_defaults[8]
*13 gpio_defaults[9]
*14 mgmt_gpio_in
*15 mgmt_gpio_oeb
*16 mgmt_gpio_out
*17 one
*18 pad_gpio_ana_en
*19 pad_gpio_ana_pol
*20 pad_gpio_ana_sel
*21 pad_gpio_dm[0]
*22 pad_gpio_dm[1]
*23 pad_gpio_dm[2]
*24 pad_gpio_holdover
*25 pad_gpio_ib_mode_sel
*26 pad_gpio_in
*27 pad_gpio_inenb
*28 pad_gpio_out
*29 pad_gpio_outenb
*30 pad_gpio_slow_sel
*31 pad_gpio_vtrip_sel
*32 resetn
*33 resetn_out
*34 serial_clock
*35 serial_clock_out
*36 serial_data_in
*37 serial_data_out
*38 serial_load
*39 serial_load_out
*40 user_gpio_in
*41 user_gpio_oeb
*42 user_gpio_out
*47 zero
*48 _000_
*49 _001_
*50 _002_
*51 _003_
*52 _004_
*53 _005_
*54 _006_
*55 _007_
*56 _008_
*57 _009_
*58 _010_
*59 _011_
*60 _012_
*61 _013_
*62 _014_
*63 _015_
*64 _016_
*65 _017_
*66 _018_
*67 _019_
*68 _020_
*69 _021_
*70 _022_
*71 _023_
*72 _024_
*73 _025_
*74 _026_
*75 _041_
*76 _042_
*77 _043_
*78 _044_
*79 _045_
*80 _046_
*81 _047_
*82 _048_
*83 _049_
*84 _050_
*85 _051_
*86 _052_
*87 _053_
*88 _054_
*89 _055_
*90 _056_
*91 _057_
*92 clknet_0_serial_clock
*93 clknet_0_serial_load
*94 clknet_1_0__leaf_serial_clock
*95 clknet_1_0__leaf_serial_load
*96 gpio_logic1
*97 gpio_outenb
*98 mgmt_ena
*99 net1
*100 net10
*101 net11
*102 net12
*103 net13
*104 net14
*105 net15
*106 net16
*107 net17
*108 net18
*109 net19
*110 net2
*111 net20
*112 net21
*113 net22
*114 net23
*115 net24
*116 net25
*117 net26
*118 net27
*119 net28
*120 net29
*121 net3
*122 net30
*123 net31
*124 net32
*125 net33
*126 net34
*127 net35
*128 net36
*129 net37
*130 net38
*131 net39
*132 net4
*133 net40
*134 net41
*135 net42
*136 net43
*137 net44
*138 net45
*139 net46
*140 net47
*141 net48
*142 net49
*143 net5
*144 net50
*145 net51
*146 net52
*147 net53
*148 net54
*149 net55
*150 net56
*151 net57
*152 net58
*153 net6
*154 net7
*155 net8
*156 net9
*157 one_buffered
*158 serial_clock_out_buffered
*159 serial_load_out_buffered
*160 shift_register\[0\]
*161 shift_register\[10\]
*162 shift_register\[11\]
*163 shift_register\[12\]
*164 shift_register\[1\]
*165 shift_register\[2\]
*166 shift_register\[3\]
*167 shift_register\[4\]
*168 shift_register\[5\]
*169 shift_register\[6\]
*170 shift_register\[7\]
*171 shift_register\[8\]
*172 shift_register\[9\]
*173 zero_buffered
*174 ANTENNA__061__A0
*175 ANTENNA__062__B
*176 ANTENNA__068__B
*177 ANTENNA__069__B
*178 ANTENNA__070__B
*179 ANTENNA__071__B
*180 ANTENNA__072__B
*181 ANTENNA__073__B
*182 ANTENNA__074__B
*183 ANTENNA__075__B
*184 ANTENNA__076__B
*185 ANTENNA__077__B
*186 ANTENNA__078__B
*187 ANTENNA__079__B
*188 ANTENNA__080__B
*189 ANTENNA__081__B
*190 ANTENNA__082__A
*191 ANTENNA__082__B
*192 ANTENNA__083__B
*193 ANTENNA__084__B
*194 ANTENNA__085__B
*195 ANTENNA__086__B
*196 ANTENNA__087__B
*197 ANTENNA__088__B
*198 ANTENNA__089__B
*199 ANTENNA__090__B
*200 ANTENNA__091__B
*201 ANTENNA__092__B
*202 ANTENNA__093__B
*203 ANTENNA_clkbuf_0_serial_clock_A
*204 ANTENNA_clkbuf_0_serial_load_A
*205 ANTENNA_fanout27_A
*206 ANTENNA_fanout28_A
*207 ANTENNA_fanout29_A
*208 ANTENNA_input1_A
*209 ANTENNA_input2_A
*210 ANTENNA_input3_A
*211 ANTENNA_input4_A
*212 ANTENNA_input5_A
*213 FILLER_0_27
*214 FILLER_0_31
*215 FILLER_0_57
*216 FILLER_0_85
*217 FILLER_0_95
*218 FILLER_12_29
*219 FILLER_13_99
*220 FILLER_15_57
*221 FILLER_15_71
*222 FILLER_17_57
*223 FILLER_17_99
*224 FILLER_1_34
*225 FILLER_3_80
*226 FILLER_3_89
*227 FILLER_3_99
*228 FILLER_4_60
*229 FILLER_5_80
*230 FILLER_5_99
*231 PHY_0
*232 PHY_1
*233 PHY_10
*234 PHY_11
*235 PHY_12
*236 PHY_13
*237 PHY_14
*238 PHY_15
*239 PHY_16
*240 PHY_17
*241 PHY_18
*242 PHY_19
*243 PHY_2
*244 PHY_20
*245 PHY_21
*246 PHY_22
*247 PHY_23
*248 PHY_24
*249 PHY_25
*250 PHY_26
*251 PHY_27
*252 PHY_28
*253 PHY_29
*254 PHY_3
*255 PHY_30
*256 PHY_31
*257 PHY_32
*258 PHY_33
*259 PHY_34
*260 PHY_35
*261 PHY_36
*262 PHY_37
*263 PHY_38
*264 PHY_39
*265 PHY_4
*266 PHY_40
*267 PHY_41
*268 PHY_5
*269 PHY_6
*270 PHY_7
*271 PHY_8
*272 PHY_9
*273 TAP_42
*274 TAP_43
*275 TAP_44
*276 TAP_45
*277 TAP_46
*278 TAP_47
*279 TAP_48
*280 TAP_49
*281 TAP_50
*282 TAP_51
*283 TAP_52
*284 TAP_53
*285 TAP_54
*286 TAP_55
*287 TAP_56
*288 TAP_57
*289 TAP_58
*290 TAP_59
*291 TAP_60
*292 TAP_61
*293 TAP_62
*294 TAP_63
*295 TAP_64
*296 TAP_65
*297 TAP_66
*298 TAP_67
*299 TAP_68
*300 TAP_69
*301 TAP_70
*302 TAP_71
*303 TAP_72
*304 TAP_73
*305 _058__1
*306 _059__14
*307 _060_
*308 _061_
*309 _062_
*310 _063_
*311 _064_
*312 _065_
*313 _066_
*314 _067_
*315 _068_
*316 _069_
*317 _070_
*318 _071_
*319 _072_
*320 _073_
*321 _074_
*322 _075_
*323 _076_
*324 _077_
*325 _078_
*326 _079_
*327 _080_
*328 _081_
*329 _082_
*330 _083_
*331 _084_
*332 _085_
*333 _086_
*334 _087_
*335 _088_
*336 _089_
*337 _090_
*338 _091_
*339 _092_
*340 _093_
*341 _094__2
*342 _095__3
*343 _096__4
*344 _097__5
*345 _098__6
*346 _099__7
*347 _100__8
*348 _101__9
*349 _102__10
*350 _103__11
*351 _104__12
*352 _105__13
*353 _106_
*354 _107_
*355 _108_
*356 _109_
*357 _110_
*358 _111_
*359 _112_
*360 _113_
*361 _114_
*362 _115_
*363 _116_
*364 _117_
*365 _118_
*366 _119_
*367 _120_
*368 _121_
*369 _122_
*370 _123_
*371 _124_
*372 _125_
*373 _126_
*374 _127_
*375 _128_
*376 _129_
*377 _130_
*378 _131_
*379 _132_
*380 _133_
*381 _134_
*382 clkbuf_0_serial_clock
*383 clkbuf_0_serial_load
*384 clkbuf_1_0__f_serial_clock
*385 clkbuf_1_0__f_serial_load
*386 clkbuf_1_1__f_serial_clock
*387 clkbuf_1_1__f_serial_load
*388 const_source
*389 fanout23
*390 fanout24
*391 fanout25
*392 fanout26
*393 fanout27
*394 fanout28
*395 fanout29
*396 fanout30
*397 fanout31
*398 gpio_logic_high
*399 hold1
*400 hold10
*401 hold11
*402 hold12
*403 hold13
*404 hold2
*405 hold3
*406 hold4
*407 hold5
*408 hold6
*409 hold7
*410 hold8
*411 hold9
*412 input1
*413 input2
*414 input3
*415 input4
*416 input5
*417 one_buffer
*418 output10
*419 output11
*420 output12
*421 output13
*422 output14
*423 output15
*424 output16
*425 output17
*426 output18
*427 output19
*428 output20
*429 output21
*430 output22
*431 output6
*432 output7
*433 output8
*434 output9
*435 serial_clock_out_buffer
*436 serial_load_out_buffer
*437 spare_cell
*438 zero_buffer

*PORTS
gpio_defaults[0] I
gpio_defaults[10] I
gpio_defaults[11] I
gpio_defaults[12] I
gpio_defaults[1] I
gpio_defaults[2] I
gpio_defaults[3] I
gpio_defaults[4] I
gpio_defaults[5] I
gpio_defaults[6] I
gpio_defaults[7] I
gpio_defaults[8] I
gpio_defaults[9] I
mgmt_gpio_in O
mgmt_gpio_oeb I
mgmt_gpio_out I
one O
pad_gpio_ana_en O
pad_gpio_ana_pol O
pad_gpio_ana_sel O
pad_gpio_dm[0] O
pad_gpio_dm[1] O
pad_gpio_dm[2] O
pad_gpio_holdover O
pad_gpio_ib_mode_sel O
pad_gpio_in I
pad_gpio_inenb O
pad_gpio_out O
pad_gpio_outenb O
pad_gpio_slow_sel O
pad_gpio_vtrip_sel O
resetn I
resetn_out O
serial_clock I
serial_clock_out O
serial_data_in I
serial_data_out O
serial_load I
serial_load_out O
user_gpio_in O
user_gpio_oeb I
user_gpio_out I
zero O

*D_NET *1 0.0198855
*CONN
*P gpio_defaults[0] I
*I *315:B I *D sky130_fd_sc_hd__or2_0
*I *316:B I *D sky130_fd_sc_hd__nand2b_2
*I *176:DIODE I *D sky130_fd_sc_hd__diode_2
*I *177:DIODE I *D sky130_fd_sc_hd__diode_2
*CAP
1 gpio_defaults[0] 0.00283473
2 *315:B 0.000131632
3 *316:B 0.000135167
4 *176:DIODE 0.000764227
5 *177:DIODE 3.20697e-06
6 *1:38 0.000969426
7 *1:27 0.00161753
8 *1:16 0.00451066
9 *176:DIODE pad_gpio_ana_en 0.000270487
10 *176:DIODE *208:DIODE 0.000108889
11 *176:DIODE *209:DIODE 1.53053e-05
12 *176:DIODE *333:A 0.000239726
13 *176:DIODE *419:A 8.90199e-05
14 *176:DIODE *433:A 6.70727e-06
15 *176:DIODE *438:A 0.000449436
16 *176:DIODE *3:29 0.000316036
17 *176:DIODE *3:37 0.000581782
18 *176:DIODE *39:10 4.60123e-05
19 *176:DIODE *119:38 0.000215932
20 *177:DIODE *361:SET_B 1.97429e-05
21 *315:B *315:A 0.00031982
22 *315:B *353:RESET_B 0.000156767
23 *315:B *408:A 5.53549e-06
24 *315:B *42:31 0.000216933
25 *316:B *321:A 4.77719e-05
26 *316:B *332:A_N 1.43622e-05
27 *316:B *353:SET_B 4.77807e-05
28 *316:B *361:SET_B 8.35118e-05
29 *316:B *119:33 0.000160945
30 *316:B *143:18 0.000486887
31 *1:16 serial_clock_out 6.40452e-05
32 *1:16 serial_data_out 0.00125048
33 *1:16 *369:D 0.00012635
34 *1:16 *5:11 0.000158305
35 *1:16 *6:7 2.09302e-06
36 *1:16 *8:19 1.30358e-05
37 *1:16 *13:13 0.000386963
38 *1:16 *38:8 1.3923e-05
39 *1:16 *113:22 1.44817e-05
40 *1:16 *116:38 2.20846e-05
41 *1:16 *116:76 0.000288803
42 *1:16 *118:9 0.000244926
43 *1:27 pad_gpio_dm[1] 0
44 *1:27 *326:A_N 3.92756e-05
45 *1:27 *347:A 2.83644e-05
46 *1:27 *356:RESET_B 0.000137307
47 *1:27 *360:CLK_N 0.0007148
48 *1:27 *361:RESET_B 6.46317e-05
49 *1:27 *361:SET_B 0.000222022
50 *1:27 *404:A 5.22871e-05
51 *1:27 *408:A 8.80475e-05
52 *1:27 *419:A 0.000114802
53 *1:27 *423:A 1.83598e-05
54 *1:27 *425:A 7.72037e-05
55 *1:27 *3:23 0.000718313
56 *1:38 *361:SET_B 1.72184e-05
57 *1:38 *419:A 0.000100902
58 *1:38 *3:29 4.04632e-05
*RES
1 gpio_defaults[0] *1:16 13.4324 
2 *1:16 *1:27 16.668 
3 *1:27 *177:DIODE 3.8325 
4 *1:27 *1:38 1.7025 
5 *1:38 *176:DIODE 25.63 
6 *1:38 *316:B 8.55 
7 *1:16 *315:B 8.1975 
*END

*D_NET *2 0.00956349
*CONN
*P gpio_defaults[10] I
*I *192:DIODE I *D sky130_fd_sc_hd__diode_2
*I *191:DIODE I *D sky130_fd_sc_hd__diode_2
*I *329:B I *D sky130_fd_sc_hd__or2_0
*I *330:B I *D sky130_fd_sc_hd__nand2b_2
*CAP
1 gpio_defaults[10] 0.00168934
2 *192:DIODE 0.000105942
3 *191:DIODE 0.000490322
4 *329:B 5.2248e-05
5 *330:B 0
6 *2:33 0.000614136
7 *2:24 9.1698e-05
8 *2:22 0.00181541
9 *191:DIODE *310:C 6.44782e-05
10 *191:DIODE *329:A 5.84759e-05
11 *191:DIODE *360:RESET_B 8.23457e-05
12 *191:DIODE *29:9 6.57085e-05
13 *191:DIODE *77:7 1.91597e-05
14 *192:DIODE *330:A_N 2.09975e-05
15 *192:DIODE *360:SET_B 8.51875e-05
16 *192:DIODE *418:A 4.00523e-05
17 *329:B *329:A 5.38954e-05
18 *329:B *361:SET_B 7.56066e-05
19 *329:B *425:A 2.93063e-05
20 *329:B *29:9 0.00015819
21 *2:22 pad_gpio_slow_sel 0.00035054
22 *2:22 pad_gpio_vtrip_sel 2.64558e-06
23 *2:22 serial_clock_out 0.00029015
24 *2:22 serial_data_out 0.000450161
25 *2:22 *320:B 0
26 *2:22 *321:A 4.41506e-05
27 *2:22 *326:A_N 0.000493496
28 *2:22 *330:A_N 3.83194e-05
29 *2:22 *342:A 0.000141036
30 *2:22 *357:RESET_B 0
31 *2:22 *377:D 0.000263031
32 *2:22 *378:CLK 0.000331256
33 *2:22 *407:A 0
34 *2:22 *418:A 0.000135141
35 *2:22 *427:A 9.19679e-05
36 *2:22 *3:23 0
37 *2:22 *11:19 0
38 *2:22 *13:13 0
39 *2:22 *13:20 0.000154116
40 *2:22 *118:34 5.51857e-05
41 *2:22 *118:58 0.000305039
42 *2:22 *145:25 4.45711e-05
43 *2:22 *158:32 7.46585e-05
44 *2:22 *158:47 0.000410387
45 *2:33 *330:A_N 8.23457e-05
46 *2:33 *361:SET_B 0.000123696
47 *2:33 *425:A 6.90972e-05
*RES
1 gpio_defaults[10] *2:22 32.8303 
2 *2:22 *2:24 0.36 
3 *2:24 *330:B 1.6 
4 *2:24 *2:33 4.43 
5 *2:33 *329:B 5.955 
6 *2:33 *191:DIODE 9.57 
7 *2:22 *192:DIODE 3.775 
*END

*D_NET *3 0.0114618
*CONN
*P gpio_defaults[11] I
*I *332:B I *D sky130_fd_sc_hd__nand2b_2
*I *331:B I *D sky130_fd_sc_hd__or2_0
*I *193:DIODE I *D sky130_fd_sc_hd__diode_2
*I *194:DIODE I *D sky130_fd_sc_hd__diode_2
*CAP
1 gpio_defaults[11] 0.00192326
2 *332:B 0
3 *331:B 0
4 *193:DIODE 0
5 *194:DIODE 2.56121e-05
6 *3:37 0.000319832
7 *3:29 0.000482195
8 *3:24 0.000200802
9 *3:23 0.00193609
10 *194:DIODE *188:DIODE 2.68526e-05
11 *3:23 *317:A 0.00023003
12 *3:23 *329:A 0.000342283
13 *3:23 *354:SET_B 0.000231787
14 *3:23 *361:RESET_B 0.000951799
15 *3:23 *404:A 0.00021625
16 *3:23 *425:A 0.000383745
17 *3:23 *426:A 5.93628e-05
18 *3:23 *427:A 5.66687e-05
19 *3:23 *4:17 0.000147395
20 *3:23 *115:15 0.000663768
21 *3:23 *118:34 8.08238e-05
22 *3:23 *123:34 0.000349525
23 *3:23 *139:10 0.000129721
24 *3:23 *148:9 5.75488e-05
25 *3:24 *332:A_N 4.66108e-05
26 *3:24 *143:18 1.41165e-05
27 *3:29 *332:A_N 0.000118081
28 *3:29 *361:SET_B 0.000110908
29 *3:29 *419:A 0.000119022
30 *3:29 *119:38 4.91075e-05
31 *3:29 *143:18 1.19928e-05
32 *3:37 *208:DIODE 2.92603e-05
33 *3:37 *329:A 0.000175411
34 *3:37 *419:A 0.000315348
35 *176:DIODE *3:29 0.000316036
36 *176:DIODE *3:37 0.000581782
37 *1:27 *3:23 0.000718313
38 *1:38 *3:29 4.04632e-05
39 *2:22 *3:23 0
*RES
1 gpio_defaults[11] *3:23 49.72 
2 *3:23 *3:24 0.45 
3 *3:24 *3:29 7.58 
4 *3:29 *3:37 10.82 
5 *3:37 *194:DIODE 2.05 
6 *3:37 *193:DIODE 1.6 
7 *3:29 *331:B 3.6 
8 *3:24 *332:B 1.6 
*END

*D_NET *4 0.0137203
*CONN
*P gpio_defaults[12] I
*I *334:B I *D sky130_fd_sc_hd__nand2b_2
*I *333:B I *D sky130_fd_sc_hd__or2_0
*I *196:DIODE I *D sky130_fd_sc_hd__diode_2
*I *195:DIODE I *D sky130_fd_sc_hd__diode_2
*CAP
1 gpio_defaults[12] 0.00175006
2 *334:B 0.000130102
3 *333:B 6.29293e-05
4 *196:DIODE 0.000281406
5 *195:DIODE 6.24483e-05
6 *4:44 0.000434892
7 *4:27 0.000881512
8 *4:17 0.00217075
9 *195:DIODE *431:A 2.59285e-05
10 *196:DIODE *329:A 0.000171906
11 *196:DIODE *5:40 0.000342536
12 *196:DIODE *122:15 0.000100224
13 *333:B *333:A 2.747e-05
14 *333:B *362:RESET_B 5.83121e-06
15 *333:B *26:10 0.000155608
16 *334:B *333:A 6.90254e-05
17 *334:B *362:RESET_B 0.000128076
18 *334:B *414:A 2.21606e-05
19 *334:B *99:8 5.36975e-06
20 *334:B *120:8 0.000188535
21 *4:17 *182:DIODE 2.99137e-05
22 *4:17 *211:DIODE 0.000255609
23 *4:17 *320:B 4.3231e-05
24 *4:17 *354:RESET_B 1.19892e-05
25 *4:17 *355:SET_B 8.9454e-05
26 *4:17 *359:RESET_B 6.5741e-05
27 *4:17 *364:CLK_N 0.00013607
28 *4:17 *365:SET_B 0.000489119
29 *4:17 *378:D 0
30 *4:17 *406:A 0.000293714
31 *4:17 *422:A 0.00114102
32 *4:17 *434:A 6.78476e-05
33 *4:17 *11:19 1.60658e-05
34 *4:17 *32:12 0.000776354
35 *4:17 *115:15 3.1191e-05
36 *4:17 *115:20 2.97872e-06
37 *4:17 *123:34 0.000914551
38 *4:17 *139:10 0.000129484
39 *4:27 *380:A 8.41307e-05
40 *4:27 *397:A 9.47267e-06
41 *4:27 *419:A 5.93408e-05
42 *4:27 *431:A 0.000969278
43 *4:27 *438:A 0.000569398
44 *4:27 *119:16 4.36001e-05
45 *4:44 *210:DIODE 2.85623e-05
46 *4:44 *362:RESET_B 1.08036e-05
47 *4:44 *380:A 8.35157e-05
48 *4:44 *414:A 2.98644e-05
49 *4:44 *26:10 4.66108e-05
50 *4:44 *120:8 2.50751e-05
51 *4:44 *121:7 0.000102164
52 *3:23 *4:17 0.000147395
*RES
1 gpio_defaults[12] *4:17 40.455 
2 *4:17 *195:DIODE 4.725 
3 *4:17 *4:27 13.49 
4 *4:27 *196:DIODE 12.08 
5 *4:27 *4:44 5.945 
6 *4:44 *333:B 5.085 
7 *4:44 *334:B 7.785 
*END

*D_NET *5 0.0251382
*CONN
*P gpio_defaults[1] I
*I *328:B I *D sky130_fd_sc_hd__nand2b_2
*I *189:DIODE I *D sky130_fd_sc_hd__diode_2
*I *188:DIODE I *D sky130_fd_sc_hd__diode_2
*I *327:B I *D sky130_fd_sc_hd__or2_0
*CAP
1 gpio_defaults[1] 0.000357752
2 *328:B 0.000974626
3 *189:DIODE 0
4 *188:DIODE 0.00154097
5 *327:B 7.17547e-05
6 *5:40 0.00446208
7 *5:28 0.00547744
8 *5:11 0.00201121
9 *188:DIODE one 0.000148547
10 *188:DIODE pad_gpio_ana_pol 1.01551e-05
11 *188:DIODE zero 9.08126e-05
12 *188:DIODE *205:DIODE 4.57056e-05
13 *188:DIODE *208:DIODE 1.19928e-05
14 *188:DIODE *209:DIODE 0.000534896
15 *188:DIODE *384:A 7.10263e-05
16 *188:DIODE *94:8 0.000234737
17 *327:B *327:A 4.89395e-05
18 *328:B serial_clock_out 0.000256477
19 *328:B *307:A 6.33103e-05
20 *328:B *313:A2 5.92535e-05
21 *328:B *313:B1 5.8023e-05
22 *328:B *359:SET_B 4.66108e-05
23 *328:B *34:11 0.000128915
24 *5:11 *179:DIODE 1.84465e-05
25 *5:11 *367:CLK 0.000182427
26 *5:11 *403:A 8.34262e-05
27 *5:11 *6:7 0.000466495
28 *5:11 *6:27 0.000713364
29 *5:11 *94:64 0.000179311
30 *5:11 *94:71 0.000179801
31 *5:11 *118:9 0.00024157
32 *5:11 *152:10 5.1985e-06
33 *5:28 pad_gpio_vtrip_sel 0.00242501
34 *5:28 *183:DIODE 7.60474e-05
35 *5:28 *326:B 7.5643e-05
36 *5:28 *327:A 0.000220396
37 *5:28 *346:A 7.95186e-05
38 *5:28 *359:RESET_B 0.000125746
39 *5:28 *377:D 0.000985754
40 *5:28 *379:RESET_B 0
41 *5:28 *6:27 7.56573e-06
42 *5:28 *32:12 5.5587e-05
43 *5:28 *93:8 0.000269939
44 *5:28 *94:60 0.000305933
45 *5:28 *117:13 0.000305674
46 *5:28 *148:9 0.000281948
47 *5:40 one 0
48 *5:40 pad_gpio_ana_pol 2.13924e-05
49 *5:40 *311:A_N 0.000113124
50 *5:40 *314:B 3.97748e-05
51 *5:40 *329:A 1.80525e-05
52 *5:40 *396:A 7.47702e-05
53 *5:40 *15:10 0.000103154
54 *5:40 *99:8 0.00013032
55 *5:40 *122:7 3.57349e-05
56 *5:40 *122:11 8.41307e-05
57 *194:DIODE *188:DIODE 2.68526e-05
58 *196:DIODE *5:40 0.000342536
59 *1:16 *5:11 0.000158305
*RES
1 gpio_defaults[1] *5:11 17.015 
2 *5:11 *327:B 2.74 
3 *5:11 *5:28 14.3735 
4 *5:28 *5:40 12.9312 
5 *5:40 *188:DIODE 26.945 
6 *5:40 *189:DIODE 1.6 
7 *5:28 *328:B 7.79857 
*END

*D_NET *6 0.0129348
*CONN
*P gpio_defaults[2] I
*I *318:B I *D sky130_fd_sc_hd__nand2b_2
*I *178:DIODE I *D sky130_fd_sc_hd__diode_2
*I *317:B I *D sky130_fd_sc_hd__or2_0
*I *179:DIODE I *D sky130_fd_sc_hd__diode_2
*CAP
1 gpio_defaults[2] 0.000327189
2 *318:B 0.000289301
3 *178:DIODE 0.000300688
4 *317:B 4.66576e-05
5 *179:DIODE 8.60833e-05
6 *6:41 0.000746853
7 *6:27 0.00204046
8 *6:7 0.00225021
9 *178:DIODE *326:B 0.000204082
10 *178:DIODE *353:SET_B 6.60907e-06
11 *178:DIODE *355:D 3.91137e-05
12 *178:DIODE *358:SET_B 0.000300333
13 *178:DIODE *362:CLK_N 0.000129712
14 *178:DIODE *404:A 4.66108e-05
15 *178:DIODE *423:A 3.05521e-05
16 *178:DIODE *32:12 0.000199873
17 *178:DIODE *42:31 0.000130977
18 *317:B *317:A 2.49909e-05
19 *317:B *427:A 2.49909e-05
20 *317:B *115:15 5.8023e-05
21 *317:B *123:34 5.8023e-05
22 *318:B *318:A_N 0.000141264
23 *318:B *362:CLK_N 0.000714436
24 *318:B *42:31 0.000437343
25 *6:7 *369:D 4.65246e-05
26 *6:7 *7:14 0
27 *6:27 resetn_out 0.00132837
28 *6:27 *183:DIODE 0.000147159
29 *6:27 *326:B 0.000131026
30 *6:27 *369:D 0.000213224
31 *6:27 *7:14 0
32 *6:27 *8:19 0
33 *6:27 *11:19 0.000625998
34 *6:27 *94:60 5.15276e-05
35 *6:27 *152:10 0.000101374
36 *6:41 resetn_out 0.000307894
37 *6:41 *326:B 0.000139367
38 *1:16 *6:7 2.09302e-06
39 *5:11 *179:DIODE 1.84465e-05
40 *5:11 *6:7 0.000466495
41 *5:11 *6:27 0.000713364
42 *5:28 *6:27 7.56573e-06
*RES
1 gpio_defaults[2] *6:7 7.1475 
2 *6:7 *179:DIODE 4.6275 
3 *6:7 *6:27 13.1577 
4 *6:27 *317:B 5.2925 
5 *6:27 *6:41 1.00413 
6 *6:41 *178:DIODE 10.1718 
7 *6:41 *318:B 12.5025 
*END

*D_NET *7 0.0107428
*CONN
*P gpio_defaults[3] I
*I *323:B I *D sky130_fd_sc_hd__or2_0
*I *184:DIODE I *D sky130_fd_sc_hd__diode_2
*I *185:DIODE I *D sky130_fd_sc_hd__diode_2
*I *324:B I *D sky130_fd_sc_hd__nand2b_2
*CAP
1 gpio_defaults[3] 0.00191894
2 *323:B 2.93803e-05
3 *184:DIODE 0.000159021
4 *185:DIODE 0.000489078
5 *324:B 2.56381e-05
6 *7:35 0.000822688
7 *7:28 0.000441283
8 *7:14 0.00218189
9 *184:DIODE *435:A 0.000232563
10 *185:DIODE *345:A 6.81155e-05
11 *185:DIODE *354:CLK_N 0.000129483
12 *185:DIODE *361:CLK_N 5.34082e-05
13 *185:DIODE *435:A 0.000266391
14 *185:DIODE *9:38 0.000175088
15 *185:DIODE *122:30 0.000133329
16 *323:B *323:A 6.11897e-05
17 *323:B *357:RESET_B 6.21022e-05
18 *323:B *39:10 4.89295e-05
19 *324:B *364:CLK_N 2.08971e-05
20 *7:14 *324:A_N 1.74678e-05
21 *7:14 *357:SET_B 1.33205e-05
22 *7:14 *369:D 0.00010793
23 *7:14 *379:RESET_B 0
24 *7:14 *391:A 0.00159366
25 *7:14 *393:A 0.000459336
26 *7:14 *436:A 0
27 *7:14 *9:24 2.01934e-05
28 *7:14 *152:10 0.000228763
29 *7:28 *180:DIODE 0.000124131
30 *7:28 *323:A 0.000144821
31 *7:28 *354:CLK_N 3.86987e-05
32 *7:28 *357:RESET_B 1.14192e-05
33 *7:28 *357:SET_B 2.01259e-05
34 *7:28 *363:CLK_N 7.15997e-05
35 *7:35 *345:A 5.0096e-05
36 *7:35 *363:SET_B 0.000364894
37 *7:35 *364:SET_B 0.000156916
38 *6:7 *7:14 0
39 *6:27 *7:14 0
*RES
1 gpio_defaults[3] *7:14 41.24 
2 *7:14 *324:B 2.215 
3 *7:14 *7:28 8.95 
4 *7:28 *7:35 8.8 
5 *7:35 *185:DIODE 14.975 
6 *7:35 *184:DIODE 3.775 
7 *7:28 *323:B 2.74 
*END

*D_NET *8 0.0165941
*CONN
*P gpio_defaults[4] I
*I *326:B I *D sky130_fd_sc_hd__nand2b_2
*I *187:DIODE I *D sky130_fd_sc_hd__diode_2
*I *325:B I *D sky130_fd_sc_hd__or2_0
*I *186:DIODE I *D sky130_fd_sc_hd__diode_2
*CAP
1 gpio_defaults[4] 0.000679719
2 *326:B 0.00187971
3 *187:DIODE 0
4 *325:B 3.34704e-05
5 *186:DIODE 0.00144318
6 *8:23 0.00204927
7 *8:19 0.00135891
8 *8:15 0.00334572
9 *186:DIODE *335:A 6.24428e-05
10 *186:DIODE *384:A 2.88357e-05
11 *186:DIODE *94:8 0.000574181
12 *326:B resetn_out 0.000185841
13 *326:B *312:A2 1.79536e-05
14 *326:B *326:A_N 0.000139949
15 *326:B *357:SET_B 0.000296305
16 *326:B *358:SET_B 0.000162067
17 *326:B *361:CLK_N 0.00015027
18 *326:B *361:RESET_B 1.92979e-05
19 *326:B *377:D 0.000114388
20 *326:B *11:19 0.000628414
21 *326:B *32:12 0.000356777
22 *326:B *34:11 5.15265e-05
23 *326:B *116:76 0.000340043
24 *326:B *123:34 4.12303e-05
25 *8:15 *319:A 2.20154e-05
26 *8:15 *359:CLK_N 9.74882e-05
27 *8:15 *379:CLK 0.000162304
28 *8:15 *392:A 0.000297199
29 *8:15 *407:A 4.85118e-05
30 *8:15 *410:A 1.92979e-05
31 *8:15 *429:A 0
32 *8:15 *430:A 4.77769e-05
33 *8:15 *9:13 0.000147072
34 *8:15 *10:21 0.000375501
35 *8:19 resetn_out 7.0157e-05
36 *8:19 *94:64 1.92979e-05
37 *8:19 *116:38 0.000111372
38 *8:19 *116:76 5.48259e-05
39 *8:23 *183:DIODE 0.000366809
40 *8:23 *403:A 0.000176896
41 *8:23 *94:64 5.49252e-05
42 *178:DIODE *326:B 0.000204082
43 *1:16 *8:19 1.30358e-05
44 *5:28 *326:B 7.5643e-05
45 *6:27 *326:B 0.000131026
46 *6:27 *8:19 0
47 *6:41 *326:B 0.000139367
*RES
1 gpio_defaults[4] *8:15 18.3375 
2 *8:15 *8:19 2.1689 
3 *8:19 *8:23 12.63 
4 *8:23 *186:DIODE 31.2 
5 *8:23 *325:B 4.05 
6 *8:19 *187:DIODE 3.6 
7 *8:15 *326:B 16.7812 
*END

*D_NET *9 0.0110668
*CONN
*P gpio_defaults[5] I
*I *335:B I *D sky130_fd_sc_hd__or2_0
*I *198:DIODE I *D sky130_fd_sc_hd__diode_2
*I *197:DIODE I *D sky130_fd_sc_hd__diode_2
*I *336:B I *D sky130_fd_sc_hd__nand2b_2
*CAP
1 gpio_defaults[5] 0.00107552
2 *335:B 0
3 *198:DIODE 4.69508e-05
4 *197:DIODE 0
5 *336:B 0
6 *9:38 0.000263196
7 *9:24 0.00105101
8 *9:13 0.00191028
9 *198:DIODE *180:DIODE 5.09431e-05
10 *198:DIODE *159:43 0.000148298
11 *9:13 *335:A 8.61593e-05
12 *9:13 *342:A 0.000506976
13 *9:13 *346:A 0.00113814
14 *9:13 *355:CLK_N 0.000596742
15 *9:13 *367:RESET_B 0.000102772
16 *9:13 *368:RESET_B 5.95017e-05
17 *9:13 *403:A 7.56954e-05
18 *9:13 *10:21 0.000192886
19 *9:13 *94:60 0.000266013
20 *9:13 *116:48 0.000179409
21 *9:13 *117:13 0.000115407
22 *9:13 *152:10 0.000393315
23 *9:24 *336:A_N 0.000300022
24 *9:24 *391:A 0.000453961
25 *9:24 *10:26 0.000390658
26 *9:24 *10:29 7.28465e-06
27 *9:24 *119:16 0.000301492
28 *9:24 *159:8 0.000125632
29 *9:24 *159:15 0.000307954
30 *9:38 *180:DIODE 2.88357e-05
31 *9:38 *200:DIODE 8.53011e-05
32 *9:38 *361:CLK_N 0.000131525
33 *9:38 *363:SET_B 0.000156769
34 *9:38 *119:16 1.43253e-05
35 *9:38 *159:43 0.0001615
36 *185:DIODE *9:38 0.000175088
37 *7:14 *9:24 2.01934e-05
38 *8:15 *9:13 0.000147072
*RES
1 gpio_defaults[5] *9:13 35.44 
2 *9:13 *9:24 27.285 
3 *9:24 *336:B 1.6 
4 *9:24 *9:38 9.82 
5 *9:38 *197:DIODE 1.6 
6 *9:38 *198:DIODE 3.085 
7 *9:13 *335:B 3.6 
*END

*D_NET *10 0.00972093
*CONN
*P gpio_defaults[6] I
*I *337:B I *D sky130_fd_sc_hd__or2_0
*I *338:B I *D sky130_fd_sc_hd__nand2b_2
*I *199:DIODE I *D sky130_fd_sc_hd__diode_2
*I *200:DIODE I *D sky130_fd_sc_hd__diode_2
*CAP
1 gpio_defaults[6] 0.00129816
2 *337:B 1.36534e-05
3 *338:B 8.04722e-05
4 *199:DIODE 0
5 *200:DIODE 0.000268429
6 *10:29 0.000386666
7 *10:26 0.000372428
8 *10:21 0.00148553
9 *200:DIODE *358:CLK_N 9.05592e-05
10 *200:DIODE *361:CLK_N 4.77807e-05
11 *200:DIODE *119:16 4.66108e-05
12 *200:DIODE *159:15 0.000192502
13 *200:DIODE *159:21 6.52015e-05
14 *200:DIODE *159:27 2.69153e-05
15 *200:DIODE *159:43 2.01934e-05
16 *337:B *337:A 4.66108e-05
17 *337:B *379:RESET_B 4.66108e-05
18 *338:B *314:A 0.000178675
19 *338:B *338:A_N 8.23457e-05
20 *10:21 *203:DIODE 0.000320573
21 *10:21 *337:A 0.000123696
22 *10:21 *346:A 1.81554e-05
23 *10:21 *371:D 0.000119466
24 *10:21 *371:RESET_B 0.000443674
25 *10:21 *402:A 4.07308e-05
26 *10:21 *407:A 4.98735e-05
27 *10:21 *410:A 8.46435e-06
28 *10:21 *427:A 8.8162e-05
29 *10:21 *13:20 2.34629e-05
30 *10:21 *93:8 0.000270838
31 *10:21 *94:60 0.00010345
32 *10:21 *117:13 0.000698435
33 *10:21 *147:11 0.000131951
34 *10:26 *203:DIODE 0.000475317
35 *10:26 *314:A 8.35118e-05
36 *10:26 *336:A_N 2.85623e-05
37 *10:26 *337:A 2.98644e-05
38 *10:26 *338:A_N 3.57349e-05
39 *10:26 *358:CLK_N 1.37188e-05
40 *10:26 *114:13 4.66108e-05
41 *10:26 *159:8 5.02331e-05
42 *10:29 *336:A_N 0.000326738
43 *10:29 *358:CLK_N 0.000388729
44 *8:15 *10:21 0.000375501
45 *9:13 *10:21 0.000192886
46 *9:24 *10:26 0.000390658
47 *9:24 *10:29 7.28465e-06
48 *9:38 *200:DIODE 8.53011e-05
*RES
1 gpio_defaults[6] *10:21 28.7457 
2 *10:21 *10:26 9.275 
3 *10:26 *10:29 6.695 
4 *10:29 *200:DIODE 8.97 
5 *10:29 *199:DIODE 3.6 
6 *10:26 *338:B 3.43 
7 *10:21 *337:B 4.05 
*END

*D_NET *11 0.00964511
*CONN
*P gpio_defaults[7] I
*I *340:B I *D sky130_fd_sc_hd__nand2b_2
*I *202:DIODE I *D sky130_fd_sc_hd__diode_2
*I *201:DIODE I *D sky130_fd_sc_hd__diode_2
*I *339:B I *D sky130_fd_sc_hd__or2_0
*CAP
1 gpio_defaults[7] 0.0011768
2 *340:B 0
3 *202:DIODE 6.69326e-05
4 *201:DIODE 0.000387822
5 *339:B 7.10492e-05
6 *11:27 0.000597373
7 *11:21 0.000356322
8 *11:19 0.00132769
9 *201:DIODE *174:DIODE 0.000304826
10 *201:DIODE *316:A_N 5.83121e-06
11 *201:DIODE *353:CLK_N 0.000306123
12 *201:DIODE *365:RESET_B 0.000225285
13 *201:DIODE *119:33 0.000103927
14 *202:DIODE *347:A 0.000153816
15 *202:DIODE *401:A 4.41506e-05
16 *339:B *339:A 8.23457e-05
17 *11:19 serial_data_out 0
18 *11:19 *319:A 0
19 *11:19 *319:B 0.000122817
20 *11:19 *355:RESET_B 2.39856e-05
21 *11:19 *357:RESET_B 0.000449958
22 *11:19 *359:CLK_N 2.92271e-05
23 *11:19 *366:RESET_B 0
24 *11:19 *392:A 5.74791e-05
25 *11:19 *407:A 0.000153011
26 *11:19 *427:A 2.35639e-05
27 *11:19 *430:A 8.83758e-05
28 *11:19 *12:7 7.59093e-05
29 *11:19 *13:13 0.000391425
30 *11:19 *32:12 8.75115e-05
31 *11:19 *113:22 4.20709e-05
32 *11:19 *115:15 0.000219453
33 *11:19 *123:34 9.2507e-05
34 *11:19 *145:25 0
35 *11:21 *322:B 1.05827e-05
36 *11:21 *400:A 1.08814e-05
37 *11:21 *13:31 0.000242097
38 *11:21 *32:12 0.000306405
39 *11:21 *115:15 2.85364e-05
40 *11:27 pad_gpio_slow_sel 1.18585e-05
41 *11:27 *432:A 0.000284595
42 *11:27 *13:31 6.00245e-05
43 *11:27 *32:12 0.000352055
44 *326:B *11:19 0.000628414
45 *2:22 *11:19 0
46 *4:17 *11:19 1.60658e-05
47 *6:27 *11:19 0.000625998
*RES
1 gpio_defaults[7] *11:19 26.0535 
2 *11:19 *11:21 3.93 
3 *11:21 *11:27 6.89 
4 *11:27 *339:B 2.74 
5 *11:27 *201:DIODE 13.625 
6 *11:21 *202:DIODE 5.085 
7 *11:19 *340:B 3.6 
*END

*D_NET *12 0.014192
*CONN
*P gpio_defaults[8] I
*I *319:B I *D sky130_fd_sc_hd__or2_0
*I *320:B I *D sky130_fd_sc_hd__nand2b_2
*I *180:DIODE I *D sky130_fd_sc_hd__diode_2
*I *181:DIODE I *D sky130_fd_sc_hd__diode_2
*CAP
1 gpio_defaults[8] 0.000125523
2 *319:B 0.000100851
3 *320:B 0.000501051
4 *180:DIODE 0.000759266
5 *181:DIODE 0.00096136
6 *12:14 0.00188279
7 *12:11 0.0012711
8 *12:7 0.000834256
9 *180:DIODE *323:A 4.40693e-06
10 *180:DIODE *354:CLK_N 0.000916918
11 *180:DIODE *357:SET_B 0.000770143
12 *180:DIODE *361:CLK_N 0.000585068
13 *180:DIODE *363:CLK_N 3.11888e-05
14 *180:DIODE *363:SET_B 0.000213455
15 *180:DIODE *113:22 0.000283838
16 *181:DIODE *343:A 2.19562e-06
17 *181:DIODE *371:CLK 2.39856e-05
18 *181:DIODE *371:RESET_B 0.000188558
19 *181:DIODE *374:CLK 3.23284e-05
20 *181:DIODE *402:A 0.000191335
21 *181:DIODE *403:A 2.01737e-05
22 *319:B *359:CLK_N 0.000160397
23 *319:B *392:A 0.000455764
24 *319:B *429:A 8.52951e-05
25 *319:B *430:A 9.56017e-06
26 *320:B *342:A 0.000194891
27 *320:B *355:SET_B 2.44112e-05
28 *320:B *357:RESET_B 0.000172623
29 *320:B *358:RESET_B 9.10058e-05
30 *320:B *358:SET_B 9.02911e-05
31 *320:B *370:RESET_B 0.000175852
32 *320:B *374:D 6.33103e-05
33 *320:B *375:CLK 8.52845e-05
34 *320:B *421:A 8.34904e-06
35 *320:B *422:A 7.97788e-05
36 *320:B *115:19 2.49909e-05
37 *320:B *115:20 4.83522e-05
38 *320:B *118:34 8.30853e-06
39 *12:7 *13:13 8.66184e-05
40 *12:7 *113:22 6.9382e-05
41 *12:11 *357:RESET_B 0.000254589
42 *12:11 *358:RESET_B 0.000214954
43 *12:11 *359:CLK_N 0
44 *12:11 *113:22 0.000618776
45 *12:11 *143:18 0.000922959
46 *12:14 *343:A 2.46488e-05
47 *12:14 *374:CLK 7.01132e-05
48 *12:14 *374:D 5.83121e-06
49 *198:DIODE *180:DIODE 5.09431e-05
50 *2:22 *320:B 0
51 *4:17 *320:B 4.3231e-05
52 *7:28 *180:DIODE 0.000124131
53 *9:38 *180:DIODE 2.88357e-05
54 *11:19 *319:B 0.000122817
55 *11:19 *12:7 7.59093e-05
*RES
1 gpio_defaults[8] *12:7 3.18 
2 *12:7 *12:11 18.425 
3 *12:11 *12:14 2.535 
4 *12:14 *181:DIODE 12.4 
5 *12:14 *180:DIODE 31.905 
6 *12:11 *320:B 20.325 
7 *12:7 *319:B 8.205 
*END

*D_NET *13 0.0219861
*CONN
*P gpio_defaults[9] I
*I *183:DIODE I *D sky130_fd_sc_hd__diode_2
*I *322:B I *D sky130_fd_sc_hd__nand2b_2
*I *321:B I *D sky130_fd_sc_hd__or2_0
*I *182:DIODE I *D sky130_fd_sc_hd__diode_2
*CAP
1 gpio_defaults[9] 0.00182081
2 *183:DIODE 0.000816364
3 *322:B 0.0009743
4 *321:B 0.000560001
5 *182:DIODE 0.000592939
6 *13:31 0.00214895
7 *13:20 0.00323798
8 *13:13 0.00390484
9 *182:DIODE serial_clock_out 7.63402e-05
10 *182:DIODE *351:A 5.06989e-05
11 *182:DIODE *364:CLK_N 0.000400594
12 *182:DIODE *364:RESET_B 5.88634e-05
13 *182:DIODE *365:CLK_N 4.46302e-05
14 *182:DIODE *421:A 0.000175005
15 *182:DIODE *422:A 0.000156445
16 *183:DIODE pad_gpio_vtrip_sel 9.19197e-05
17 *183:DIODE *403:A 0.00019231
18 *321:B *321:A 0.000134373
19 *321:B *353:SET_B 4.4495e-05
20 *321:B *120:22 0.000661253
21 *322:B *322:A_N 9.85989e-05
22 *322:B *355:CLK_N 3.59266e-06
23 *322:B *355:D 0.000107371
24 *322:B *355:RESET_B 0.000122714
25 *322:B *358:SET_B 1.08105e-05
26 *322:B *400:A 7.96104e-06
27 *322:B *426:A 0.000192658
28 *322:B *115:15 5.83121e-06
29 *322:B *118:45 3.59538e-06
30 *13:13 serial_data_out 0
31 *13:13 *366:RESET_B 1.05138e-05
32 *13:13 *369:D 3.86352e-05
33 *13:13 *38:8 0.000214479
34 *13:13 *113:22 0.000433501
35 *13:13 *116:35 0.000233015
36 *13:20 pad_gpio_vtrip_sel 0.00141093
37 *13:20 *379:RESET_B 8.76348e-06
38 *13:20 *116:35 5.97021e-05
39 *13:31 pad_gpio_slow_sel 0.000213968
40 *13:31 *326:A_N 4.09397e-05