*SPEF "ieee 1481-1999"
*DESIGN "gpio_control_block"
*DATE "11:11:11 Fri 11 11, 1111"
*VENDOR "OpenRCX"
*PROGRAM "Parallel Extraction"
*VERSION "1.0"
*DESIGN_FLOW "NAME_SCOPE LOCAL" "PIN_CAP NONE"
*DIVIDER /
*DELIMITER :
*BUS_DELIMITER []
*T_UNIT 1 NS
*C_UNIT 1 PF
*R_UNIT 1 OHM
*L_UNIT 1 HENRY

*NAME_MAP
*1 gpio_defaults[0]
*2 gpio_defaults[10]
*3 gpio_defaults[11]
*4 gpio_defaults[12]
*5 gpio_defaults[1]
*6 gpio_defaults[2]
*7 gpio_defaults[3]
*8 gpio_defaults[4]
*9 gpio_defaults[5]
*10 gpio_defaults[6]
*11 gpio_defaults[7]
*12 gpio_defaults[8]
*13 gpio_defaults[9]
*14 mgmt_gpio_in
*15 mgmt_gpio_oeb
*16 mgmt_gpio_out
*17 one
*18 pad_gpio_ana_en
*19 pad_gpio_ana_pol
*20 pad_gpio_ana_sel
*21 pad_gpio_dm[0]
*22 pad_gpio_dm[1]
*23 pad_gpio_dm[2]
*24 pad_gpio_holdover
*25 pad_gpio_ib_mode_sel
*26 pad_gpio_in
*27 pad_gpio_inenb
*28 pad_gpio_out
*29 pad_gpio_outenb
*30 pad_gpio_slow_sel
*31 pad_gpio_vtrip_sel
*32 resetn
*33 resetn_out
*34 serial_clock
*35 serial_clock_out
*36 serial_data_in
*37 serial_data_out
*38 serial_load
*39 serial_load_out
*40 user_gpio_in
*41 user_gpio_oeb
*42 user_gpio_out
*47 zero
*48 _000_
*49 _001_
*50 _002_
*51 _003_
*52 _004_
*53 _005_
*54 _006_
*55 _007_
*56 _008_
*57 _009_
*58 _010_
*59 _011_
*60 _012_
*61 _013_
*62 _014_
*63 _015_
*64 _016_
*65 _017_
*66 _018_
*67 _019_
*68 _020_
*69 _021_
*70 _022_
*71 _023_
*72 _024_
*73 _025_
*74 _026_
*75 _041_
*76 _042_
*77 _043_
*78 _044_
*79 _045_
*80 _046_
*81 _047_
*82 _048_
*83 _049_
*84 _050_
*85 _051_
*86 _052_
*87 _053_
*88 _054_
*89 _055_
*90 _056_
*91 _057_
*92 clknet_0_serial_clock
*93 clknet_0_serial_load
*94 clknet_1_0__leaf_serial_clock
*95 clknet_1_0__leaf_serial_load
*96 clknet_1_1__leaf_serial_clock
*97 clknet_1_1__leaf_serial_load
*98 gpio_logic1
*99 gpio_outenb
*100 mgmt_ena
*101 net1
*102 net10
*103 net11
*104 net12
*105 net13
*106 net14
*107 net15
*108 net16
*109 net17
*110 net18
*111 net19
*112 net2
*113 net20
*114 net21
*115 net22
*116 net23
*117 net24
*118 net25
*119 net26
*120 net27
*121 net28
*122 net29
*123 net3
*124 net30
*125 net31
*126 net32
*127 net33
*128 net34
*129 net35
*130 net36
*131 net37
*132 net38
*133 net39
*134 net4
*135 net40
*136 net41
*137 net42
*138 net43
*139 net44
*140 net45
*141 net46
*142 net47
*143 net48
*144 net49
*145 net5
*146 net50
*147 net51
*148 net52
*149 net53
*150 net54
*151 net55
*152 net56
*153 net57
*154 net58
*155 net59
*156 net6
*157 net60
*158 net61
*159 net62
*160 net63
*161 net64
*162 net65
*163 net66
*164 net67
*165 net68
*166 net69
*167 net7
*168 net70
*169 net71
*170 net72
*171 net73
*172 net74
*173 net8
*174 net9
*175 one_buffered
*176 serial_clock_out_buffered
*177 serial_load_out_buffered
*178 shift_register\[0\]
*179 shift_register\[10\]
*180 shift_register\[11\]
*181 shift_register\[12\]
*182 shift_register\[1\]
*183 shift_register\[2\]
*184 shift_register\[3\]
*185 shift_register\[4\]
*186 shift_register\[5\]
*187 shift_register\[6\]
*188 shift_register\[7\]
*189 shift_register\[8\]
*190 shift_register\[9\]
*191 zero_buffered
*192 ANTENNA__069__A_N
*193 ANTENNA__070__A
*194 ANTENNA__071__A_N
*195 ANTENNA__076__A
*196 ANTENNA__077__A_N
*197 ANTENNA__080__A
*198 ANTENNA__081__A_N
*199 ANTENNA__086__B
*200 ANTENNA__087__B
*201 ANTENNA__119__RESET_B
*202 ANTENNA__120__RESET_B
*203 ANTENNA__121__RESET_B
*204 ANTENNA__122__RESET_B
*205 ANTENNA_clkbuf_0_serial_clock_A
*206 ANTENNA_clkbuf_0_serial_load_A
*207 ANTENNA_fanout42_A
*208 ANTENNA_input10_A
*209 ANTENNA_input11_A
*210 ANTENNA_input12_A
*211 ANTENNA_input13_A
*212 ANTENNA_input14_A
*213 ANTENNA_input15_A
*214 ANTENNA_input16_A
*215 ANTENNA_input17_A
*216 ANTENNA_input18_A
*217 ANTENNA_input19_A
*218 ANTENNA_input1_A
*219 ANTENNA_input20_A
*220 ANTENNA_input2_A
*221 ANTENNA_input3_A
*222 ANTENNA_input4_A
*223 ANTENNA_input5_A
*224 ANTENNA_input6_A
*225 ANTENNA_input7_A
*226 ANTENNA_input8_A
*227 ANTENNA_input9_A
*228 FILLER_0_29
*229 FILLER_0_3
*230 FILLER_0_61
*231 FILLER_0_87
*232 FILLER_0_92
*233 FILLER_0_99
*234 FILLER_10_3
*235 FILLER_11_3
*236 FILLER_13_3
*237 FILLER_13_99
*238 FILLER_14_3
*239 FILLER_16_3
*240 FILLER_16_60
*241 FILLER_17_3
*242 FILLER_17_57
*243 FILLER_17_99
*244 FILLER_1_30
*245 FILLER_1_99
*246 FILLER_3_99
*247 FILLER_4_50
*248 FILLER_5_84
*249 FILLER_9_3
*250 PHY_0
*251 PHY_1
*252 PHY_10
*253 PHY_11
*254 PHY_12
*255 PHY_13
*256 PHY_14
*257 PHY_15
*258 PHY_16
*259 PHY_17
*260 PHY_18
*261 PHY_19
*262 PHY_2
*263 PHY_20
*264 PHY_21
*265 PHY_22
*266 PHY_23
*267 PHY_24
*268 PHY_25
*269 PHY_26
*270 PHY_27
*271 PHY_28
*272 PHY_29
*273 PHY_3
*274 PHY_30
*275 PHY_31
*276 PHY_32
*277 PHY_33
*278 PHY_34
*279 PHY_35
*280 PHY_36
*281 PHY_37
*282 PHY_38
*283 PHY_39
*284 PHY_4
*285 PHY_40
*286 PHY_41
*287 PHY_5
*288 PHY_6
*289 PHY_7
*290 PHY_8
*291 PHY_9
*292 TAP_42
*293 TAP_43
*294 TAP_44
*295 TAP_45
*296 TAP_46
*297 TAP_47
*298 TAP_48
*299 TAP_49
*300 TAP_50
*301 TAP_51
*302 TAP_52
*303 TAP_53
*304 TAP_54
*305 TAP_55
*306 TAP_56
*307 TAP_57
*308 TAP_58
*309 TAP_59
*310 TAP_60
*311 TAP_61
*312 TAP_62
*313 TAP_63
*314 TAP_64
*315 TAP_65
*316 TAP_66
*317 TAP_67
*318 TAP_68
*319 TAP_69
*320 TAP_70
*321 TAP_71
*322 TAP_72
*323 TAP_73
*324 _058__1
*325 _059__14
*326 _060_
*327 _061_
*328 _062_
*329 _063_
*330 _064_
*331 _065_
*332 _066_
*333 _067_
*334 _068_
*335 _069_
*336 _070_
*337 _071_
*338 _072_
*339 _073_
*340 _074_
*341 _075_
*342 _076_
*343 _077_
*344 _078_
*345 _079_
*346 _080_
*347 _081_
*348 _082_
*349 _083_
*350 _084_
*351 _085_
*352 _086_
*353 _087_
*354 _088_
*355 _089_
*356 _090_
*357 _091_
*358 _092_
*359 _093_
*360 _094__2
*361 _095__3
*362 _096__4
*363 _097__5
*364 _098__6
*365 _099__7
*366 _100__8
*367 _101__9
*368 _102__10
*369 _103__11
*370 _104__12
*371 _105__13
*372 _106_
*373 _107_
*374 _108_
*375 _109_
*376 _110_
*377 _111_
*378 _112_
*379 _113_
*380 _114_
*381 _115_
*382 _116_
*383 _117_
*384 _118_
*385 _119_
*386 _120_
*387 _121_
*388 _122_
*389 _123_
*390 _124_
*391 _125_
*392 _126_
*393 _127_
*394 _128_
*395 _129_
*396 _130_
*397 _131_
*398 _132_
*399 _133_
*400 _134_
*401 _135_
*402 _136_
*403 clkbuf_0_serial_clock
*404 clkbuf_0_serial_load
*405 clkbuf_1_0__f_serial_clock
*406 clkbuf_1_0__f_serial_load
*407 clkbuf_1_1__f_serial_clock
*408 clkbuf_1_1__f_serial_load
*409 const_source
*410 fanout40
*411 fanout41
*412 fanout42
*413 fanout43
*414 fanout44
*415 fanout45
*416 fanout46
*417 fanout47
*418 gpio_logic_high
*419 hold1
*420 hold10
*421 hold11
*422 hold12
*423 hold13
*424 hold2
*425 hold3
*426 hold4
*427 hold5
*428 hold6
*429 hold7
*430 hold8
*431 hold9
*432 input1
*433 input10
*434 input11
*435 input12
*436 input13
*437 input14
*438 input15
*439 input16
*440 input17
*441 input18
*442 input19
*443 input2
*444 input20
*445 input3
*446 input4
*447 input5
*448 input6
*449 input7
*450 input8
*451 input9
*452 one_buffer
*453 output21
*454 output22
*455 output23
*456 output24
*457 output25
*458 output26
*459 output27
*460 output28
*461 output29
*462 output30
*463 output31
*464 output32
*465 output33
*466 output34
*467 output35
*468 output36
*469 output37
*470 output38
*471 output39
*472 serial_clock_out_buffer
*473 serial_load_out_buffer
*474 spare_cell
*475 zero_buffer

*PORTS
gpio_defaults[0] I
gpio_defaults[10] I
gpio_defaults[11] I
gpio_defaults[12] I
gpio_defaults[1] I
gpio_defaults[2] I
gpio_defaults[3] I
gpio_defaults[4] I
gpio_defaults[5] I
gpio_defaults[6] I
gpio_defaults[7] I
gpio_defaults[8] I
gpio_defaults[9] I
mgmt_gpio_in O
mgmt_gpio_oeb I
mgmt_gpio_out I
one O
pad_gpio_ana_en O
pad_gpio_ana_pol O
pad_gpio_ana_sel O
pad_gpio_dm[0] O
pad_gpio_dm[1] O
pad_gpio_dm[2] O
pad_gpio_holdover O
pad_gpio_ib_mode_sel O
pad_gpio_in I
pad_gpio_inenb O
pad_gpio_out O
pad_gpio_outenb O
pad_gpio_slow_sel O
pad_gpio_vtrip_sel O
resetn I
resetn_out O
serial_clock I
serial_clock_out O
serial_data_in I
serial_data_out O
serial_load I
serial_load_out O
user_gpio_in O
user_gpio_oeb I
user_gpio_out I
zero O

*D_NET *1 0.00829951
*CONN
*P gpio_defaults[0] I
*I *432:A I *D sky130_fd_sc_hd__clkbuf_2
*I *218:DIODE I *D sky130_fd_sc_hd__diode_2
*CAP
1 gpio_defaults[0] 0.000204016
2 *432:A 8.80121e-05
3 *218:DIODE 9.68286e-05
4 *1:12 0.000833911
5 *1:7 0.00301398
6 *1:5 0.00256893
7 *218:DIODE *194:DIODE 7.48554e-05
8 *218:DIODE *226:DIODE 1.30833e-05
9 *218:DIODE *138:29 0.00012415
10 *432:A *226:DIODE 3.4845e-05
11 *432:A *109:15 9.58689e-05
12 *432:A *138:29 0.000100248
13 *1:12 *109:15 1.35544e-05
14 *1:12 *145:11 0.00103723
*RES
1 gpio_defaults[0] *1:5 4.16964 
2 *1:5 *1:7 48.2411 
3 *1:7 *1:12 23.5 
4 *1:12 *218:DIODE 16.3536 
5 *1:12 *432:A 16.0857 
*END

*D_NET *2 0.0129083
*CONN
*P gpio_defaults[10] I
*I *220:DIODE I *D sky130_fd_sc_hd__diode_2
*I *443:A I *D sky130_fd_sc_hd__clkbuf_2
*CAP
1 gpio_defaults[10] 0.000975277
2 *220:DIODE 0.000873245
3 *443:A 0.00127347
4 *2:13 0.003122
5 *220:DIODE *331:A2 2.47753e-05
6 *220:DIODE *332:A2 4.04674e-05
7 *220:DIODE *71:23 5.47842e-05
8 *220:DIODE *107:15 5.20669e-05
9 *220:DIODE *111:19 0.000159296
10 *220:DIODE *112:11 0.00097632
11 *220:DIODE *118:16 8.22793e-06
12 *443:A *7:27 1.94135e-05
13 *443:A *111:19 0.000217173
14 *443:A *112:11 0.00193101
15 *443:A *173:8 2.35521e-05
16 *2:13 *352:A 0.000141593
17 *2:13 *376:RESET_B 0.000539415
18 *2:13 *398:RESET_B 0.000345428
19 *2:13 *400:A 4.36699e-05
20 *2:13 *461:A 0.000316277
21 *2:13 *471:A 0.000144812
22 *2:13 *3:22 0.000182839
23 *2:13 *4:15 0
24 *2:13 *13:14 0
25 *2:13 *31:8 0.000300131
26 *2:13 *137:79 1.90936e-05
27 *2:13 *137:99 0.000188034
28 *2:13 *143:10 5.92778e-05
29 *2:13 *148:8 1.06693e-05
30 *2:13 *156:35 0.00086598
*RES
1 gpio_defaults[10] *2:13 32.2046 
2 *2:13 *443:A 22.0268 
3 *2:13 *220:DIODE 23.4235 
*END

*D_NET *3 0.00779153
*CONN
*P gpio_defaults[11] I
*I *221:DIODE I *D sky130_fd_sc_hd__diode_2
*I *445:A I *D sky130_fd_sc_hd__clkbuf_2
*CAP
1 gpio_defaults[11] 0.00126605
2 *221:DIODE 0.000387643
3 *445:A 0
4 *3:22 0.00165369
5 *221:DIODE *327:A1 0.000136727
6 *221:DIODE *28:11 0.000264329
7 *3:22 *335:B 6.61683e-05
8 *3:22 *338:B 0.000466585
9 *3:22 *404:A 0.000177596
10 *3:22 *420:A 5.93614e-05
11 *3:22 *463:A 9.54798e-06
12 *3:22 *464:A 0.000326895
13 *3:22 *465:A 0.00014466
14 *3:22 *471:A 0.000142667
15 *3:22 *4:15 0
16 *3:22 *28:11 8.13896e-05
17 *3:22 *39:19 0.000567897
18 *3:22 *105:28 0.000114898
19 *3:22 *138:108 8.60646e-05
20 *3:22 *139:32 2.68613e-05
21 *3:22 *139:35 9.66977e-05
22 *3:22 *143:10 0.000716031
23 *3:22 *156:15 2.8078e-05
24 *3:22 *156:35 0.000788853
25 *2:13 *3:22 0.000182839
*RES
1 gpio_defaults[11] *3:22 49.5536 
2 *3:22 *445:A 9.3 
3 *3:22 *221:DIODE 16.3 
*END

*D_NET *4 0.0204188
*CONN
*P gpio_defaults[12] I
*I *222:DIODE I *D sky130_fd_sc_hd__diode_2
*I *446:A I *D sky130_fd_sc_hd__clkbuf_2
*CAP
1 gpio_defaults[12] 0.00536695
2 *222:DIODE 0.000527557
3 *446:A 0.00251969
4 *4:15 0.0084142
5 *222:DIODE *207:DIODE 0
6 *222:DIODE *453:A 4.08789e-05
7 *222:DIODE *475:A 4.19624e-06
8 *446:A *440:A 0.000226181
9 *446:A *41:27 0.000321037
10 *446:A *132:19 1.17516e-05
11 *446:A *134:15 0.000143106
12 *446:A *134:21 0.000144698
13 *4:15 *335:B 4.19624e-06
14 *4:15 *342:B 6.96346e-05
15 *4:15 *348:B 0.000110654
16 *4:15 *372:SET_B 3.15243e-05
17 *4:15 *379:SET_B 0.000121787
18 *4:15 *381:D 9.12967e-05
19 *4:15 *33:22 9.20983e-05
20 *4:15 *118:16 0.000108872
21 *4:15 *134:39 0.0011189
22 *4:15 *137:162 0
23 *4:15 *138:108 0
24 *4:15 *158:10 0.000121897
25 *4:15 *166:30 0.000100248
26 *4:15 *170:8 3.90274e-05
27 *4:15 *170:15 0.000145178
28 *4:15 *185:14 0.00054326
29 *2:13 *4:15 0
30 *3:22 *4:15 0
*RES
1 gpio_defaults[12] *4:15 33.3413 
2 *4:15 *446:A 22.0533 
3 *4:15 *222:DIODE 18.4499 
*END

*D_NET *5 0.0113653
*CONN
*P gpio_defaults[1] I
*I *447:A I *D sky130_fd_sc_hd__clkbuf_2
*I *223:DIODE I *D sky130_fd_sc_hd__diode_2
*CAP
1 gpio_defaults[1] 0.00171314
2 *447:A 0
3 *223:DIODE 0.000443207
4 *5:21 0.00126334
5 *5:12 0.00253327
6 *223:DIODE *95:26 1.30914e-05
7 *223:DIODE *95:48 0
8 *223:DIODE *144:9 0.000149117
9 *223:DIODE *145:11 0.000654112
10 *223:DIODE *150:8 1.12669e-05
11 *5:12 *337:B 0.00014852
12 *5:12 *344:B 7.46072e-05
13 *5:12 *347:A_N 0.000117424
14 *5:12 *355:A_N 0
15 *5:12 *378:SET_B 3.9733e-05
16 *5:12 *381:RESET_B 1.01912e-05
17 *5:12 *385:CLK 5.52881e-05
18 *5:12 *389:RESET_B 0.000113331
19 *5:12 *6:17 0
20 *5:12 *7:27 0
21 *5:12 *94:88 1.33248e-05
22 *5:12 *110:13 0.00030355
23 *5:12 *136:84 0.000512202
24 *5:12 *137:123 7.79481e-05
25 *5:12 *138:20 0
26 *5:12 *142:15 7.26225e-05
27 *5:12 *145:12 0.000154359
28 *5:12 *145:30 0
29 *5:12 *173:8 0.000510645
30 *5:12 *177:8 0.00069351
31 *5:21 *401:A 2.20654e-05
32 *5:21 *436:A 0.000456805
33 *5:21 *468:A 8.15368e-05
34 *5:21 *10:14 6.58991e-05
35 *5:21 *94:34 0
36 *5:21 *144:9 1.10632e-05
37 *5:21 *149:10 0.000763227
38 *5:21 *174:16 0.000286883
*RES
1 gpio_defaults[1] *5:12 49.4643 
2 *5:12 *5:21 22.6438 
3 *5:21 *223:DIODE 21.9964 
4 *5:21 *447:A 13.8 
*END

*D_NET *6 0.0118369
*CONN
*P gpio_defaults[2] I
*I *448:A I *D sky130_fd_sc_hd__clkbuf_2
*I *224:DIODE I *D sky130_fd_sc_hd__diode_2
*CAP
1 gpio_defaults[2] 0.00122852
2 *448:A 0
3 *224:DIODE 0.000226459
4 *6:21 0.00213695
5 *6:17 0.00313902
6 *224:DIODE *441:A 9.76123e-05
7 *224:DIODE *17:10 5.83677e-05
8 *224:DIODE *102:18 0.000157519
9 *224:DIODE *137:30 5.6647e-05
10 *6:17 *385:CLK 8.11213e-05
11 *6:17 *389:D 3.63203e-05
12 *6:17 *394:D 0.000125679
13 *6:17 *402:A 0.00016457
14 *6:17 *467:A 0.000124749
15 *6:17 *7:12 0
16 *6:17 *7:27 0.000957886
17 *6:17 *110:26 0.000503693
18 *6:17 *132:15 0.0001366
19 *6:17 *132:19 0
20 *6:17 *138:20 0.000219448
21 *6:17 *138:94 0.00120155
22 *6:21 *333:A 0
23 *6:21 *356:B 1.75465e-05
24 *6:21 *357:B 6.21955e-05
25 *6:21 *384:CLK_N 9.77716e-06
26 *6:21 *387:D 2.01997e-05
27 *6:21 *392:RESET_B 5.09462e-05
28 *6:21 *397:D 0.000200001
29 *6:21 *102:18 0.000398575
30 *6:21 *111:19 4.81278e-05
31 *6:21 *115:10 0
32 *6:21 *136:54 0
33 *6:21 *143:10 9.55594e-05
34 *6:21 *159:10 0.000110396
35 *6:21 *187:24 0.000170893
36 *5:12 *6:17 0
*RES
1 gpio_defaults[2] *6:17 48.4011 
2 *6:17 *6:21 13.8869 
3 *6:21 *224:DIODE 18.4071 
4 *6:21 *448:A 13.8 
*END

*D_NET *7 0.0103304
*CONN
*P gpio_defaults[3] I
*I *225:DIODE I *D sky130_fd_sc_hd__diode_2
*I *449:A I *D sky130_fd_sc_hd__clkbuf_2
*CAP
1 gpio_defaults[3] 0.00105159
2 *225:DIODE 0.000180921
3 *449:A 7.85963e-05
4 *7:27 0.0011514
5 *7:12 0.00210067
6 *225:DIODE *194:DIODE 0.000137639
7 *225:DIODE *109:15 5.07058e-05
8 *225:DIODE *138:29 6.05161e-06
9 *225:DIODE *145:11 0.000130668
10 *449:A *344:B 1.65169e-05
11 *449:A *408:A 5.33005e-05
12 *449:A *167:15 0.000137639
13 *7:12 *389:D 1.17516e-05
14 *7:12 *408:A 0.000290311
15 *7:12 *8:7 0
16 *7:12 *94:85 4.06087e-07
17 *7:12 *110:26 8.52394e-05
18 *7:12 *132:19 0.000469536
19 *7:12 *135:16 0.000130859
20 *7:12 *138:94 0.000145407
21 *7:12 *138:108 0.000209576
22 *7:12 *167:15 0.000301094
23 *7:27 *391:CLK 5.51716e-05
24 *7:27 *402:A 0.000404333
25 *7:27 *413:A 0.000131644
26 *7:27 *95:15 0.000148658
27 *7:27 *109:15 0.000101566
28 *7:27 *111:19 0.000964115
29 *7:27 *112:11 1.41066e-05
30 *7:27 *132:19 0.0002228
31 *7:27 *138:20 0.000115817
32 *7:27 *142:8 0.000454953
33 *443:A *7:27 1.94135e-05
34 *5:12 *7:27 0
35 *6:17 *7:12 0
36 *6:17 *7:27 0.000957886
*RES
1 gpio_defaults[3] *7:12 27.5 
2 *7:12 *449:A 11.0679 
3 *7:12 *7:27 46.9107 
4 *7:27 *225:DIODE 17.6214 
*END

*D_NET *8 0.0102965
*CONN
*P gpio_defaults[4] I
*I *450:A I *D sky130_fd_sc_hd__clkbuf_2
*I *226:DIODE I *D sky130_fd_sc_hd__diode_2
*CAP
1 gpio_defaults[4] 0.00116192
2 *450:A 0.000376186
3 *226:DIODE 0.000659828
4 *8:7 0.00219793
5 *226:DIODE *194:DIODE 0.00014852
6 *226:DIODE *355:A_N 0.000173021
7 *226:DIODE *429:A 2.93272e-05
8 *226:DIODE *10:22 0.000350866
9 *226:DIODE *109:15 7.54101e-05
10 *226:DIODE *110:13 0.000619115
11 *226:DIODE *134:15 5.66472e-05
12 *226:DIODE *138:20 5.22854e-05
13 *226:DIODE *142:8 4.04135e-05
14 *226:DIODE *183:11 0.00066083
15 *450:A *391:CLK 0.000136813
16 *450:A *391:D 0.000170934
17 *450:A *94:24 0.00022049
18 *8:7 *325:A 0.000940907
19 *8:7 *355:A_N 7.11068e-05
20 *8:7 *390:RESET_B 4.15592e-05
21 *8:7 *9:20 0.000265732
22 *8:7 *92:8 9.70666e-06
23 *8:7 *135:16 8.46997e-05
24 *8:7 *135:26 1.22852e-05
25 *8:7 *135:30 8.69672e-05
26 *8:7 *137:113 0.000288701
27 *8:7 *137:144 7.58841e-05
28 *8:7 *138:94 0
29 *8:7 *138:108 0
30 *8:7 *164:10 0.00028469
31 *8:7 *183:11 0.000955799
32 *218:DIODE *226:DIODE 1.30833e-05
33 *432:A *226:DIODE 3.4845e-05
34 *7:12 *8:7 0
*RES
1 gpio_defaults[4] *8:7 31.3214 
2 *8:7 *226:DIODE 35.7643 
3 *8:7 *450:A 22.6214 
*END

*D_NET *9 0.0126742
*CONN
*P gpio_defaults[5] I
*I *451:A I *D sky130_fd_sc_hd__clkbuf_2
*I *227:DIODE I *D sky130_fd_sc_hd__diode_2
*CAP
1 gpio_defaults[5] 0.00126107
2 *451:A 3.34103e-05
3 *227:DIODE 0.000369586
4 *9:23 0.000969041
5 *9:20 0.00182712
6 *227:DIODE *371:A 5.49995e-05
7 *227:DIODE *384:CLK_N 9.58181e-05
8 *227:DIODE *456:A 0.00013899
9 *227:DIODE *17:15 0.000184735
10 *227:DIODE *101:20 0.00046673
11 *227:DIODE *156:15 0.000311223
12 *451:A *97:49 5.33005e-05
13 *9:20 *337:B 0.000119041
14 *9:20 *376:CLK_N 0.000151895
15 *9:20 *376:D 0.000177545
16 *9:20 *378:CLK_N 0.000221065
17 *9:20 *404:A 0.000253254
18 *9:20 *467:A 0.000360254
19 *9:20 *10:14 0.000139136
20 *9:20 *33:22 3.97677e-05
21 *9:20 *34:37 2.41972e-05
22 *9:20 *135:16 0.000303731
23 *9:20 *158:10 5.99792e-05
24 *9:20 *162:8 0.00105459
25 *9:20 *167:15 0.000514937
26 *9:23 *339:B 0.000164339
27 *9:23 *381:D 0.000256642
28 *9:23 *101:20 0.00127915
29 *9:23 *104:8 0.00102749
30 *9:23 *152:9 5.77311e-05
31 *9:23 *156:15 0.000437693
32 *8:7 *9:20 0.000265732
*RES
1 gpio_defaults[5] *9:20 45.5536 
2 *9:20 *9:23 26.1786 
3 *9:23 *227:DIODE 24.7821 
4 *9:23 *451:A 14.3357 
*END

*D_NET *10 0.0108036
*CONN
*P gpio_defaults[6] I
*I *208:DIODE I *D sky130_fd_sc_hd__diode_2
*I *433:A I *D sky130_fd_sc_hd__clkbuf_2
*CAP
1 gpio_defaults[6] 0.00174915
2 *208:DIODE 0.000387558
3 *433:A 9.70635e-05
4 *10:22 0.000797806
5 *10:14 0.00206233
6 *208:DIODE *401:A 0
7 *208:DIODE *103:11 5.85008e-05
8 *208:DIODE *105:21 3.65796e-05
9 *208:DIODE *149:10 7.94274e-05
10 *433:A *434:A 5.45307e-05
11 *433:A *102:18 1.00733e-05
12 *433:A *110:13 0.00023029
13 *10:14 *337:B 0.000232561
14 *10:14 *354:B 0.000190322
15 *10:14 *357:A_N 6.91708e-05
16 *10:14 *361:A 0.000355229
17 *10:14 *373:D 0.000162144
18 *10:14 *376:D 0.000165391
19 *10:14 *382:D 0.000293216
20 *10:14 *387:RESET_B 4.27935e-05
21 *10:14 *390:D 0.000382464
22 *10:14 *397:D 2.05695e-05
23 *10:14 *11:11 0
24 *10:14 *93:21 0.0001116
25 *10:14 *94:32 5.42668e-05
26 *10:14 *94:34 4.13135e-05
27 *10:14 *96:27 1.177e-05
28 *10:14 *97:24 0.000104365
29 *10:14 *136:54 0.000105247
30 *10:14 *136:73 0.000304333
31 *10:14 *137:147 0.000365314
32 *10:14 *137:162 0.000158483
33 *10:14 *149:10 3.26934e-05
34 *10:14 *160:8 0.000373074
35 *10:14 *162:8 0.000220903
36 *10:14 *167:15 0.000174318
37 *10:14 *174:16 0.000426952
38 *10:14 *183:11 3.32737e-05
39 *10:22 *429:A 6.0802e-05
40 *10:22 *434:A 1.00733e-05
41 *10:22 *110:13 0.000157477
42 *10:22 *138:29 2.42429e-05
43 *226:DIODE *10:22 0.000350866
44 *5:21 *10:14 6.58991e-05
45 *9:20 *10:14 0.000139136
*RES
1 gpio_defaults[6] *10:14 48.8929 
2 *10:14 *10:22 16.8482 
3 *10:22 *433:A 12.2018 
4 *10:22 *208:DIODE 25.1036 
*END

*D_NET *11 0.010126
*CONN
*P gpio_defaults[7] I
*I *209:DIODE I *D sky130_fd_sc_hd__diode_2
*I *434:A I *D sky130_fd_sc_hd__clkbuf_2
*CAP
1 gpio_defaults[7] 0.00156848
2 *209:DIODE 0.000392629
3 *434:A 0.000136872
4 *11:11 0.00209798
5 *209:DIODE *211:DIODE 0.000100115
6 *209:DIODE *401:A 0.000234119
7 *209:DIODE *137:52 0.00042946
8 *434:A *386:CLK 0
9 *434:A *401:A 5.86005e-05
10 *11:11 *205:DIODE 2.7935e-05
11 *11:11 *342:B 9.67041e-06
12 *11:11 *357:A_N 0.000216932
13 *11:11 *373:CLK_N 2.37944e-05
14 *11:11 *373:SET_B 0.000168555
15 *11:11 *377:SET_B 0.000175418
16 *11:11 *378:CLK_N 0.000326693
17 *11:11 *378:D 0.000141686
18 *11:11 *378:SET_B 0.000141478
19 *11:11 *382:CLK_N 5.80494e-05
20 *11:11 *383:CLK_N 0.000280122
21 *11:11 *386:CLK 2.06791e-05
22 *11:11 *397:RESET_B 0.000169067
23 *11:11 *401:A 5.50734e-05
24 *11:11 *12:21 0.000306833
25 *11:11 *93:21 4.09646e-05
26 *11:11 *94:32 1.74245e-05
27 *11:11 *94:34 7.09557e-05
28 *11:11 *95:15 0.000547045
29 *11:11 *137:47 1.22506e-05
30 *11:11 *137:52 8.96313e-05
31 *11:11 *137:162 0
32 *11:11 *176:17 0.00214291
33 *433:A *434:A 5.45307e-05
34 *10:14 *11:11 0
35 *10:22 *434:A 1.00733e-05
*RES
1 gpio_defaults[7] *11:11 45.1875 
2 *11:11 *434:A 16.3982 
3 *11:11 *209:DIODE 22.3089 
*END

*D_NET *12 0.00854272
*CONN
*P gpio_defaults[8] I
*I *435:A I *D sky130_fd_sc_hd__clkbuf_2
*I *210:DIODE I *D sky130_fd_sc_hd__diode_2
*CAP
1 gpio_defaults[8] 0.00122499
2 *435:A 0.00054193
3 *210:DIODE 7.16371e-05
4 *12:21 0.00183856
5 *210:DIODE *354:B 5.33005e-05
6 *210:DIODE *407:A 0.000219289
7 *210:DIODE *187:24 7.48733e-05
8 *435:A *382:RESET_B 0.000341051
9 *435:A *407:A 1.52131e-05
10 *435:A *419:A 5.33005e-05
11 *435:A *13:14 0.000242806
12 *435:A *96:20 0.000153591
13 *435:A *97:33 0
14 *435:A *187:24 0.00052321
15 *12:21 *373:CLK_N 5.5764e-05
16 *12:21 *373:RESET_B 4.57842e-05
17 *12:21 *376:SET_B 0.000357752
18 *12:21 *378:D 7.95353e-05
19 *12:21 *382:CLK_N 0.000348569
20 *12:21 *382:D 9.18765e-06
21 *12:21 *390:D 0.000244673
22 *12:21 *394:RESET_B 5.5764e-05
23 *12:21 *13:14 0
24 *12:21 *34:37 0.000135028
25 *12:21 *97:24 5.33005e-05
26 *12:21 *97:33 9.58181e-05
27 *12:21 *135:54 0.000107416
28 *12:21 *144:9 0.00015013
29 *12:21 *150:8 0.000304135
30 *12:21 *156:35 2.06112e-05
31 *12:21 *176:17 0.000818664
32 *11:11 *12:21 0.000306833
*RES
1 gpio_defaults[8] *12:21 46.0714 
2 *12:21 *210:DIODE 11.4786 
3 *12:21 *435:A 30.4964 
*END

*D_NET *13 0.0112301
*CONN
*P gpio_defaults[9] I
*I *436:A I *D sky130_fd_sc_hd__clkbuf_2
*I *211:DIODE I *D sky130_fd_sc_hd__diode_2
*CAP
1 gpio_defaults[9] 0.00186653
2 *436:A 0.000391799
3 *211:DIODE 0.000563222
4 *13:15 0.00122502
5 *13:14 0.00213653
6 *211:DIODE *440:A 0.000534377
7 *211:DIODE *468:A 0.000200612
8 *211:DIODE *95:26 0.000273307
9 *211:DIODE *137:52 6.41985e-05
10 *436:A *333:A 0
11 *436:A *468:A 7.06369e-05
12 *436:A *137:47 4.07684e-05
13 *436:A *138:29 6.84077e-05
14 *436:A *149:10 6.69038e-05
15 *13:14 *373:RESET_B 0.000146009
16 *13:14 *374:CLK_N 0
17 *13:14 *376:RESET_B 0
18 *13:14 *377:RESET_B 0.000146991
19 *13:14 *382:RESET_B 0.000378778
20 *13:14 *383:D 2.79421e-05
21 *13:14 *392:D 7.58841e-05
22 *13:14 *39:19 0
23 *13:14 *61:13 0
24 *13:14 *95:26 2.59355e-05
25 *13:14 *97:33 0
26 *13:14 *137:99 0
27 *13:14 *142:15 5.6443e-06
28 *13:14 *144:9 0.000751052
29 *13:14 *148:8 0
30 *13:15 *383:CLK_N 6.08625e-05
31 *13:15 *468:A 4.22836e-05
32 *13:15 *95:26 0.00068175
33 *13:15 *150:8 2.37944e-05
34 *13:15 *176:17 0.000561174
35 *209:DIODE *211:DIODE 0.000100115
36 *435:A *13:14 0.000242806
37 *2:13 *13:14 0
38 *5:21 *436:A 0.000456805
39 *12:21 *13:14 0
*RES
1 gpio_defaults[9] *13:14 45.4464 
2 *13:14 *13:15 9.6875 
3 *13:15 *211:DIODE 26.7196 
4 *13:15 *436:A 22.4157 
*END

*D_NET *14 0.00644108
*CONN
*P mgmt_gpio_in O
*I *453:X O *D sky130_fd_sc_hd__buf_16
*CAP
1 mgmt_gpio_in 0.000551204
2 *453:X 0.000909545
3 *14:22 2.15543e-05
4 *14:13 0.00143919
5 mgmt_gpio_in zero 7.42904e-05
6 mgmt_gpio_in *18:9 0.000607046
7 mgmt_gpio_in *41:19 0.000599854
8 *14:13 *212:DIODE 1.78987e-05
9 *14:13 *440:A 1.62025e-05
10 *14:13 *475:A 0.000754889
11 *14:13 *18:9 0.000138206
12 *14:13 *41:19 0.000294904
13 *14:13 *41:27 0.000695941
14 *14:13 *106:8 0.000141036
15 *14:13 *138:53 0.000179315
*RES
1 *453:X *14:13 41.4696 
2 *14:13 mgmt_gpio_in 28.5171 
3 mgmt_gpio_in *14:22 0.0595333 
*END

*D_NET *15 0.00874341
*CONN
*P mgmt_gpio_oeb I
*I *437:A I *D sky130_fd_sc_hd__clkbuf_2
*I *212:DIODE I *D sky130_fd_sc_hd__diode_2
*CAP
1 mgmt_gpio_oeb 0.000399441
2 *437:A 0
3 *212:DIODE 0.000252233
4 *15:14 0.00083125
5 *15:13 0.00233651
6 *15:10 0.00215694
7 *212:DIODE *207:DIODE 3.71352e-05
8 *212:DIODE *214:DIODE 1.48252e-05
9 *212:DIODE *41:19 9.84673e-05
10 *15:10 one 9.54627e-05
11 *15:10 pad_gpio_ana_pol 0.000489121
12 *15:10 pad_gpio_dm[0] 0.000102496
13 *15:10 zero 0.000143022
14 *15:10 *41:8 0
15 *15:13 *362:A 2.12559e-05
16 *15:13 *28:17 0.000867436
17 *15:14 *214:DIODE 0.000202948
18 *15:14 *333:A 8.23597e-06
19 *15:14 *444:A 5.92441e-05
20 *15:14 *26:24 4.68801e-05
21 *15:14 *139:10 0.00056261
22 *14:13 *212:DIODE 1.78987e-05
*RES
1 mgmt_gpio_oeb *15:10 19.4785 
2 *15:10 *15:13 37.8929 
3 *15:13 *15:14 12.5714 
4 *15:14 *212:DIODE 17.6571 
5 *15:14 *437:A 13.8 
*END

*D_NET *16 0.0105219
*CONN
*P mgmt_gpio_out I
*I *438:A I *D sky130_fd_sc_hd__clkbuf_2
*I *213:DIODE I *D sky130_fd_sc_hd__diode_2
*CAP
1 mgmt_gpio_out 0.00142078
2 *438:A 0
3 *213:DIODE 0.000229226
4 *16:37 3.51654e-05
5 *16:21 0.0014178
6 *16:14 0.00257419
7 *213:DIODE *368:A 1.00332e-05
8 *213:DIODE *453:A 0.000306217
9 *213:DIODE *17:15 9.83442e-05
10 *213:DIODE *105:28 7.66438e-05
11 *213:DIODE *141:15 9.66977e-05
12 *16:14 *25:5 0.000777716
13 *16:14 *31:15 7.78099e-05
14 *16:14 *41:8 0.00108899
15 *16:21 *368:A 1.07319e-05
16 *16:21 *399:A 4.26914e-05
17 *16:21 *411:A 0.000236182
18 *16:21 *25:5 0.000901681
19 *16:21 *105:28 8.45364e-05
20 *16:21 *107:15 0.00082789
21 *16:21 *121:26 0.000208518
*RES
1 mgmt_gpio_out *16:14 44.3207 
2 *16:14 *16:21 37.0089 
3 *16:21 *213:DIODE 24.2286 
4 *16:21 *438:A 9.3 
5 mgmt_gpio_out *16:37 0.0595333 
*END

*D_NET *17 0.0099617
*CONN
*P one O
*I *452:X O *D sky130_fd_sc_hd__buf_16
*CAP
1 one 0.000117508
2 *452:X 0.000418862
3 *17:15 0.0020093
4 *17:10 0.00231066
5 one pad_gpio_ana_en 0.000386958
6 one zero 0.000290333
7 *17:10 *47:18 0.000273752
8 *17:10 *101:13 0
9 *17:10 *137:42 3.3231e-05
10 *17:15 *371:A 9.67754e-05
11 *17:15 *415:A 0.000169569
12 *17:15 *441:A 0.000137639
13 *17:15 *20:7 0.00228123
14 *17:15 *21:10 0
15 *17:15 *47:21 0
16 *17:15 *101:13 0.000206185
17 *17:15 *140:31 0.000168446
18 *17:15 *141:15 0.000624341
19 *213:DIODE *17:15 9.83442e-05
20 *224:DIODE *17:10 5.83677e-05
21 *227:DIODE *17:15 0.000184735
22 *15:10 one 9.54627e-05
*RES
1 *452:X *17:10 24.9607 
2 *17:10 *17:15 49.8571 
3 *17:15 one 13.6511 
*END

*D_NET *18 0.00612725
*CONN
*P pad_gpio_ana_en O
*I *454:X O *D sky130_fd_sc_hd__buf_16
*CAP
1 pad_gpio_ana_en 0.000214562
2 *454:X 0.00170091
3 *18:16 2.67943e-05
4 *18:9 0.00188868
5 *18:9 *412:A 2.83425e-05
6 *18:9 *452:A 0.000525043
7 *18:9 *19:17 0.000495409
8 *18:9 *22:7 0
9 *18:9 *36:8 0
10 *18:9 *137:14 0.000115295
11 mgmt_gpio_in *18:9 0.000607046
12 one pad_gpio_ana_en 0.000386958
13 *14:13 *18:9 0.000138206
*RES
1 *454:X *18:9 47.7643 
2 *18:9 pad_gpio_ana_en 12.7404 
3 pad_gpio_ana_en *18:16 0.0595333 
*END

*D_NET *19 0.0119063
*CONN
*P pad_gpio_ana_pol O
*I *455:X O *D sky130_fd_sc_hd__buf_16
*CAP
1 pad_gpio_ana_pol 0.000245815
2 *455:X 0.00110204
3 *19:30 2.67704e-05
4 *19:25 0.00116038
5 *19:17 0.00204337
6 pad_gpio_ana_pol pad_gpio_dm[0] 0.000178049
7 pad_gpio_ana_pol *20:14 0.000805467
8 pad_gpio_ana_pol *41:8 5.64266e-05
9 *19:17 *22:7 0.000986772
10 *19:17 *36:8 0.000328006
11 *19:17 *36:12 5.49995e-05
12 *19:17 *103:11 5.49995e-05
13 *19:17 *103:12 3.14003e-05
14 *19:17 *105:21 0.000440548
15 *19:25 pad_gpio_dm[0] 0.00153116
16 *19:25 *20:14 6.87574e-05
17 *19:25 *22:10 0.000432689
18 *19:25 *28:17 0.000521618
19 *19:25 *29:25 0.000749815
20 *19:25 *31:15 0.000102679
21 *15:10 pad_gpio_ana_pol 0.000489121
22 *18:9 *19:17 0.000495409
*RES
1 *455:X *19:17 49.425 
2 *19:17 *19:25 46.3571 
3 *19:25 pad_gpio_ana_pol 15.2225 
4 pad_gpio_ana_pol *19:30 0.0595333 
*END

*D_NET *20 0.0108016
*CONN
*P pad_gpio_ana_sel O
*I *456:X O *D sky130_fd_sc_hd__buf_16
*CAP
1 pad_gpio_ana_sel 0
2 *456:X 0.000780008
3 *20:14 0.00105023
4 *20:7 0.00183024
5 *20:7 *453:A 0.000185176
6 *20:7 *47:21 0.000489116
7 *20:14 pad_gpio_dm[0] 0.00136475
8 *20:14 pad_gpio_out 0.000572112
9 *20:14 pad_gpio_slow_sel 0
10 *20:14 *22:10 0.000665226
11 *20:14 *29:25 4.39561e-05
12 *20:14 *30:5 0.000510897
13 *20:14 *41:8 0.000154446
14 pad_gpio_ana_pol *20:14 0.000805467
15 *17:15 *20:7 0.00228123
16 *19:25 *20:14 6.87574e-05
*RES
1 *456:X *20:7 39.3893 
2 *20:7 *20:14 49.0982 
3 *20:14 pad_gpio_ana_sel 3.41 
*END

*D_NET *21 0.00996595
*CONN
*P pad_gpio_dm[0] O
*I *457:X O *D sky130_fd_sc_hd__buf_16
*CAP
1 pad_gpio_dm[0] 0.000883644
2 *457:X 0.00116612
3 *21:10 0.00204977
4 pad_gpio_dm[0] pad_gpio_ib_mode_sel 6.60111e-05
5 pad_gpio_dm[0] *27:10 1.07719e-05
6 pad_gpio_dm[0] *30:5 0.000364436
7 pad_gpio_dm[0] *31:11 6.33981e-05
8 pad_gpio_dm[0] *31:15 0.000150697
9 *21:10 *460:A 0.000221822
10 *21:10 *24:10 0.00116068
11 *21:10 *27:10 0.000106403
12 *21:10 *42:13 0
13 *21:10 *140:17 0.000545731
14 *21:10 *140:31 0
15 pad_gpio_ana_pol pad_gpio_dm[0] 0.000178049
16 *15:10 pad_gpio_dm[0] 0.000102496
17 *17:15 *21:10 0
18 *19:25 pad_gpio_dm[0] 0.00153116
19 *20:14 pad_gpio_dm[0] 0.00136475
*RES
1 *457:X *21:10 46.925 
2 *21:10 pad_gpio_dm[0] 41.1511 
*END

*D_NET *22 0.0141598
*CONN
*P pad_gpio_dm[1] O
*I *458:X O *D sky130_fd_sc_hd__buf_16
*CAP
1 pad_gpio_dm[1] 2.67704e-05
2 *458:X 0.000328869
3 *22:18 2.67704e-05
4 *22:14 0.00126705
5 *22:10 0.00185628
6 *22:7 0.000918096
7 *22:7 *36:8 0.00201388
8 *22:10 *28:17 0.00105717
9 *22:10 *29:25 0
10 *22:14 pad_gpio_dm[2] 0.000926448
11 *22:14 *24:13 0.00296519
12 *22:14 *34:10 0.00052832
13 *22:14 *34:24 0.000160241
14 *22:14 *36:7 0
15 *18:9 *22:7 0
16 *19:17 *22:7 0.000986772
17 *19:25 *22:10 0.000432689
18 *20:14 *22:10 0.000665226
*RES
1 *458:X *22:7 32.8179 
2 *22:7 *22:10 27.3929 
3 *22:10 *22:14 47.2232 
4 *22:14 pad_gpio_dm[1] 3.41 
5 pad_gpio_dm[1] *22:18 0.0595333 
*END

*D_NET *23 0.0160687
*CONN
*P pad_gpio_dm[2] O
*I *459:X O *D sky130_fd_sc_hd__buf_16
*CAP
1 pad_gpio_dm[2] 0.000969899
2 *459:X 0.00123531
3 *23:23 0.0021188
4 *23:19 0.00238421
5 pad_gpio_dm[2] pad_gpio_holdover 5.04746e-05
6 pad_gpio_dm[2] pad_gpio_vtrip_sel 0.00075122
7 pad_gpio_dm[2] *24:13 0.000454632
8 pad_gpio_dm[2] *36:7 0
9 pad_gpio_dm[2] *37:11 0
10 *23:19 *358:B 0.000380156
11 *23:19 *374:D 3.69047e-06
12 *23:19 *374:RESET_B 9.05296e-05