*SPEF "ieee 1481-1999"
*DESIGN "gpio_control_block"
*DATE "11:11:11 Fri 11 11, 1111"
*VENDOR "OpenRCX"
*PROGRAM "Parallel Extraction"
*VERSION "1.0"
*DESIGN_FLOW "NAME_SCOPE LOCAL" "PIN_CAP NONE"
*DIVIDER /
*DELIMITER :
*BUS_DELIMITER []
*T_UNIT 1 NS
*C_UNIT 1 PF
*R_UNIT 1 OHM
*L_UNIT 1 HENRY

*NAME_MAP
*1 gpio_defaults[0]
*2 gpio_defaults[10]
*3 gpio_defaults[11]
*4 gpio_defaults[12]
*5 gpio_defaults[1]
*6 gpio_defaults[2]
*7 gpio_defaults[3]
*8 gpio_defaults[4]
*9 gpio_defaults[5]
*10 gpio_defaults[6]
*11 gpio_defaults[7]
*12 gpio_defaults[8]
*13 gpio_defaults[9]
*14 mgmt_gpio_in
*15 mgmt_gpio_oeb
*16 mgmt_gpio_out
*17 one
*18 pad_gpio_ana_en
*19 pad_gpio_ana_pol
*20 pad_gpio_ana_sel
*21 pad_gpio_dm[0]
*22 pad_gpio_dm[1]
*23 pad_gpio_dm[2]
*24 pad_gpio_holdover
*25 pad_gpio_ib_mode_sel
*26 pad_gpio_in
*27 pad_gpio_inenb
*28 pad_gpio_out
*29 pad_gpio_outenb
*30 pad_gpio_slow_sel
*31 pad_gpio_vtrip_sel
*32 resetn
*33 resetn_out
*34 serial_clock
*35 serial_clock_out
*36 serial_data_in
*37 serial_data_out
*38 serial_load
*39 serial_load_out
*40 user_gpio_in
*41 user_gpio_oeb
*42 user_gpio_out
*47 zero
*48 _000_
*49 _001_
*50 _002_
*51 _003_
*52 _004_
*53 _005_
*54 _006_
*55 _007_
*56 _008_
*57 _009_
*58 _010_
*59 _011_
*60 _012_
*61 _013_
*62 _014_
*63 _015_
*64 _016_
*65 _017_
*66 _018_
*67 _019_
*68 _020_
*69 _021_
*70 _022_
*71 _023_
*72 _024_
*73 _025_
*74 _026_
*75 _041_
*76 _042_
*77 _043_
*78 _044_
*79 _045_
*80 _046_
*81 _047_
*82 _048_
*83 _049_
*84 _050_
*85 _051_
*86 _052_
*87 _053_
*88 _054_
*89 _055_
*90 _056_
*91 _057_
*92 clknet_0_serial_clock
*93 clknet_0_serial_load
*94 clknet_1_0__leaf_serial_clock
*95 clknet_1_0__leaf_serial_load
*96 gpio_logic1
*97 gpio_outenb
*98 mgmt_ena
*99 net1
*100 net10
*101 net11
*102 net12
*103 net13
*104 net14
*105 net15
*106 net16
*107 net17
*108 net18
*109 net19
*110 net2
*111 net20
*112 net21
*113 net22
*114 net23
*115 net24
*116 net25
*117 net26
*118 net27
*119 net28
*120 net29
*121 net3
*122 net30
*123 net31
*124 net32
*125 net33
*126 net34
*127 net35
*128 net36
*129 net37
*130 net38
*131 net39
*132 net4
*133 net40
*134 net41
*135 net42
*136 net43
*137 net44
*138 net45
*139 net46
*140 net47
*141 net48
*142 net49
*143 net5
*144 net50
*145 net51
*146 net52
*147 net53
*148 net54
*149 net55
*150 net56
*151 net57
*152 net58
*153 net6
*154 net7
*155 net8
*156 net9
*157 one_buffered
*158 serial_clock_out_buffered
*159 serial_load_out_buffered
*160 shift_register\[0\]
*161 shift_register\[10\]
*162 shift_register\[11\]
*163 shift_register\[12\]
*164 shift_register\[1\]
*165 shift_register\[2\]
*166 shift_register\[3\]
*167 shift_register\[4\]
*168 shift_register\[5\]
*169 shift_register\[6\]
*170 shift_register\[7\]
*171 shift_register\[8\]
*172 shift_register\[9\]
*173 zero_buffered
*174 ANTENNA__061__A0
*175 ANTENNA__062__B
*176 ANTENNA__068__B
*177 ANTENNA__069__B
*178 ANTENNA__070__B
*179 ANTENNA__071__B
*180 ANTENNA__072__B
*181 ANTENNA__073__B
*182 ANTENNA__074__B
*183 ANTENNA__075__B
*184 ANTENNA__076__B
*185 ANTENNA__077__B
*186 ANTENNA__078__B
*187 ANTENNA__079__B
*188 ANTENNA__080__B
*189 ANTENNA__081__B
*190 ANTENNA__082__A
*191 ANTENNA__082__B
*192 ANTENNA__083__B
*193 ANTENNA__084__B
*194 ANTENNA__085__B
*195 ANTENNA__086__B
*196 ANTENNA__087__B
*197 ANTENNA__088__B
*198 ANTENNA__089__B
*199 ANTENNA__090__B
*200 ANTENNA__091__B
*201 ANTENNA__092__B
*202 ANTENNA__093__B
*203 ANTENNA_clkbuf_0_serial_clock_A
*204 ANTENNA_clkbuf_0_serial_load_A
*205 ANTENNA_fanout27_A
*206 ANTENNA_fanout28_A
*207 ANTENNA_fanout29_A
*208 ANTENNA_input1_A
*209 ANTENNA_input2_A
*210 ANTENNA_input3_A
*211 ANTENNA_input4_A
*212 ANTENNA_input5_A
*213 FILLER_0_27
*214 FILLER_0_31
*215 FILLER_0_57
*216 FILLER_0_85
*217 FILLER_0_95
*218 FILLER_12_29
*219 FILLER_13_99
*220 FILLER_15_57
*221 FILLER_15_71
*222 FILLER_17_57
*223 FILLER_17_99
*224 FILLER_1_34
*225 FILLER_3_80
*226 FILLER_3_89
*227 FILLER_3_99
*228 FILLER_4_60
*229 FILLER_5_80
*230 FILLER_5_99
*231 PHY_0
*232 PHY_1
*233 PHY_10
*234 PHY_11
*235 PHY_12
*236 PHY_13
*237 PHY_14
*238 PHY_15
*239 PHY_16
*240 PHY_17
*241 PHY_18
*242 PHY_19
*243 PHY_2
*244 PHY_20
*245 PHY_21
*246 PHY_22
*247 PHY_23
*248 PHY_24
*249 PHY_25
*250 PHY_26
*251 PHY_27
*252 PHY_28
*253 PHY_29
*254 PHY_3
*255 PHY_30
*256 PHY_31
*257 PHY_32
*258 PHY_33
*259 PHY_34
*260 PHY_35
*261 PHY_36
*262 PHY_37
*263 PHY_38
*264 PHY_39
*265 PHY_4
*266 PHY_40
*267 PHY_41
*268 PHY_5
*269 PHY_6
*270 PHY_7
*271 PHY_8
*272 PHY_9
*273 TAP_42
*274 TAP_43
*275 TAP_44
*276 TAP_45
*277 TAP_46
*278 TAP_47
*279 TAP_48
*280 TAP_49
*281 TAP_50
*282 TAP_51
*283 TAP_52
*284 TAP_53
*285 TAP_54
*286 TAP_55
*287 TAP_56
*288 TAP_57
*289 TAP_58
*290 TAP_59
*291 TAP_60
*292 TAP_61
*293 TAP_62
*294 TAP_63
*295 TAP_64
*296 TAP_65
*297 TAP_66
*298 TAP_67
*299 TAP_68
*300 TAP_69
*301 TAP_70
*302 TAP_71
*303 TAP_72
*304 TAP_73
*305 _058__1
*306 _059__14
*307 _060_
*308 _061_
*309 _062_
*310 _063_
*311 _064_
*312 _065_
*313 _066_
*314 _067_
*315 _068_
*316 _069_
*317 _070_
*318 _071_
*319 _072_
*320 _073_
*321 _074_
*322 _075_
*323 _076_
*324 _077_
*325 _078_
*326 _079_
*327 _080_
*328 _081_
*329 _082_
*330 _083_
*331 _084_
*332 _085_
*333 _086_
*334 _087_
*335 _088_
*336 _089_
*337 _090_
*338 _091_
*339 _092_
*340 _093_
*341 _094__2
*342 _095__3
*343 _096__4
*344 _097__5
*345 _098__6
*346 _099__7
*347 _100__8
*348 _101__9
*349 _102__10
*350 _103__11
*351 _104__12
*352 _105__13
*353 _106_
*354 _107_
*355 _108_
*356 _109_
*357 _110_
*358 _111_
*359 _112_
*360 _113_
*361 _114_
*362 _115_
*363 _116_
*364 _117_
*365 _118_
*366 _119_
*367 _120_
*368 _121_
*369 _122_
*370 _123_
*371 _124_
*372 _125_
*373 _126_
*374 _127_
*375 _128_
*376 _129_
*377 _130_
*378 _131_
*379 _132_
*380 _133_
*381 _134_
*382 clkbuf_0_serial_clock
*383 clkbuf_0_serial_load
*384 clkbuf_1_0__f_serial_clock
*385 clkbuf_1_0__f_serial_load
*386 clkbuf_1_1__f_serial_clock
*387 clkbuf_1_1__f_serial_load
*388 const_source
*389 fanout23
*390 fanout24
*391 fanout25
*392 fanout26
*393 fanout27
*394 fanout28
*395 fanout29
*396 fanout30
*397 fanout31
*398 gpio_logic_high
*399 hold1
*400 hold10
*401 hold11
*402 hold12
*403 hold13
*404 hold2
*405 hold3
*406 hold4
*407 hold5
*408 hold6
*409 hold7
*410 hold8
*411 hold9
*412 input1
*413 input2
*414 input3
*415 input4
*416 input5
*417 one_buffer
*418 output10
*419 output11
*420 output12
*421 output13
*422 output14
*423 output15
*424 output16
*425 output17
*426 output18
*427 output19
*428 output20
*429 output21
*430 output22
*431 output6
*432 output7
*433 output8
*434 output9
*435 serial_clock_out_buffer
*436 serial_load_out_buffer
*437 spare_cell
*438 zero_buffer

*PORTS
gpio_defaults[0] I
gpio_defaults[10] I
gpio_defaults[11] I
gpio_defaults[12] I
gpio_defaults[1] I
gpio_defaults[2] I
gpio_defaults[3] I
gpio_defaults[4] I
gpio_defaults[5] I
gpio_defaults[6] I
gpio_defaults[7] I
gpio_defaults[8] I
gpio_defaults[9] I
mgmt_gpio_in O
mgmt_gpio_oeb I
mgmt_gpio_out I
one O
pad_gpio_ana_en O
pad_gpio_ana_pol O
pad_gpio_ana_sel O
pad_gpio_dm[0] O
pad_gpio_dm[1] O
pad_gpio_dm[2] O
pad_gpio_holdover O
pad_gpio_ib_mode_sel O
pad_gpio_in I
pad_gpio_inenb O
pad_gpio_out O
pad_gpio_outenb O
pad_gpio_slow_sel O
pad_gpio_vtrip_sel O
resetn I
resetn_out O
serial_clock I
serial_clock_out O
serial_data_in I
serial_data_out O
serial_load I
serial_load_out O
user_gpio_in O
user_gpio_oeb I
user_gpio_out I
zero O

*D_NET *1 0.0223182
*CONN
*P gpio_defaults[0] I
*I *315:B I *D sky130_fd_sc_hd__or2_0
*I *316:B I *D sky130_fd_sc_hd__nand2b_2
*I *176:DIODE I *D sky130_fd_sc_hd__diode_2
*I *177:DIODE I *D sky130_fd_sc_hd__diode_2
*CAP
1 gpio_defaults[0] 0.00319374
2 *315:B 0.000152028
3 *316:B 0.000157728
4 *176:DIODE 0.000900748
5 *177:DIODE 3.6336e-06
6 *1:38 0.00113925
7 *1:27 0.00177897
8 *1:16 0.00504033
9 *176:DIODE *208:DIODE 0.00011795
10 *176:DIODE *209:DIODE 1.64621e-05
11 *176:DIODE *333:A 0.000263707
12 *176:DIODE *419:A 9.76123e-05
13 *176:DIODE *433:A 6.40203e-06
14 *176:DIODE *3:29 0.000346947
15 *176:DIODE *3:37 0.000631265
16 *176:DIODE *18:9 0.000312104
17 *176:DIODE *39:8 4.82947e-05
18 *176:DIODE *119:38 0.000237049
19 *176:DIODE *173:15 0.000494996
20 *177:DIODE *361:SET_B 2.18021e-05
21 *315:B *315:A 0.000360209
22 *315:B *353:RESET_B 0.000180195
23 *315:B *42:23 0.000245396
24 *315:B *164:15 5.58875e-06
25 *316:B *321:A 5.49489e-05
26 *316:B *332:A_N 1.52217e-05
27 *316:B *353:SET_B 5.50052e-05
28 *316:B *361:SET_B 9.58632e-05
29 *316:B *119:33 0.000171034
30 *316:B *143:11 0.000560141
31 *1:16 serial_clock_out 6.13969e-05
32 *1:16 serial_data_out 0.00148728
33 *1:16 *369:D 0.00013
34 *1:16 *430:A 1.41123e-05
35 *1:16 *5:11 0.000164022
36 *1:16 *6:7 2.06655e-06
37 *1:16 *8:19 1.25306e-05
38 *1:16 *13:13 0.000438323
39 *1:16 *38:8 1.36429e-05
40 *1:16 *116:38 2.15536e-05
41 *1:16 *116:76 0.000283095
42 *1:16 *118:9 0.00027029
43 *1:27 pad_gpio_dm[1] 0
44 *1:27 *326:A_N 4.65519e-05
45 *1:27 *347:A 2.97629e-05
46 *1:27 *356:RESET_B 0.000139944
47 *1:27 *360:CLK_N 0.000781306
48 *1:27 *361:SET_B 0.000243165
49 *1:27 *404:A 5.23577e-05
50 *1:27 *419:A 0.000117383
51 *1:27 *425:A 0.000186275
52 *1:27 *3:24 0.000777345
53 *1:27 *65:12 6.12016e-05
54 *1:27 *105:17 1.80253e-05
55 *1:27 *164:15 8.92945e-05
56 *1:38 *361:SET_B 1.73789e-05
57 *1:38 *419:A 0.000110779
58 *1:38 *3:29 4.44838e-05
*RES
1 gpio_defaults[0] *1:16 21.8578 
2 *1:16 *1:27 25.527 
3 *1:27 *177:DIODE 14.0768 
4 *1:27 *1:38 2.02679 
5 *1:38 *176:DIODE 44.2643 
6 *1:38 *316:B 19.6929 
7 *1:16 *315:B 19.2732 
*END

*D_NET *2 0.0108416
*CONN
*P gpio_defaults[10] I
*I *192:DIODE I *D sky130_fd_sc_hd__diode_2
*I *191:DIODE I *D sky130_fd_sc_hd__diode_2
*I *329:B I *D sky130_fd_sc_hd__or2_0
*I *330:B I *D sky130_fd_sc_hd__nand2b_2
*CAP
1 gpio_defaults[10] 0.00197007
2 *192:DIODE 0.000121345
3 *191:DIODE 0.000573404
4 *329:B 6.09659e-05
5 *330:B 0
6 *2:33 0.000722
7 *2:24 0.000108942
8 *2:22 0.00211272
9 *191:DIODE *310:C 7.37323e-05
10 *191:DIODE *329:A 6.09764e-05
11 *191:DIODE *360:RESET_B 9.41642e-05
12 *191:DIODE *29:7 6.3594e-05
13 *191:DIODE *77:7 1.98839e-05
14 *192:DIODE *330:A_N 2.2324e-05
15 *192:DIODE *360:SET_B 9.82423e-05
16 *192:DIODE *100:22 4.11387e-05
17 *329:B *329:A 6.02449e-05
18 *329:B *361:SET_B 8.35922e-05
19 *329:B *425:A 3.02801e-05
20 *329:B *29:7 0.000182147
21 *2:22 pad_gpio_slow_sel 0.000391078
22 *2:22 pad_gpio_vtrip_sel 2.58939e-06
23 *2:22 serial_clock_out 0.000318931
24 *2:22 serial_data_out 0.000493288
25 *2:22 *320:B 0
26 *2:22 *321:A 4.58194e-05
27 *2:22 *326:A_N 0.000586493
28 *2:22 *330:A_N 3.97677e-05
29 *2:22 *342:A 0.000154304
30 *2:22 *377:D 0.000287377
31 *2:22 *378:CLK 0.000363904
32 *2:22 *3:16 0
33 *2:22 *11:19 0
34 *2:22 *13:13 0
35 *2:22 *13:20 0.000156318
36 *2:22 *57:14 0
37 *2:22 *100:22 0.000137099
38 *2:22 *109:22 9.10121e-05
39 *2:22 *118:34 5.59032e-05
40 *2:22 *118:58 0.000351157
41 *2:22 *145:25 4.81965e-05
42 *2:22 *158:32 7.87452e-05
43 *2:22 *158:47 0.000439919
44 *2:22 *165:18 0
45 *2:33 *330:A_N 9.41642e-05
46 *2:33 *361:SET_B 0.000136166
47 *2:33 *425:A 6.96346e-05
*RES
1 gpio_defaults[10] *2:22 46.8772 
2 *2:22 *2:24 0.428571 
3 *2:24 *330:B 9.3 
4 *2:24 *2:33 7.39286 
5 *2:33 *329:B 16.6036 
6 *2:33 *191:DIODE 20.9071 
7 *2:22 *192:DIODE 11.8893 
*END

*D_NET *3 0.0129051
*CONN
*P gpio_defaults[11] I
*I *332:B I *D sky130_fd_sc_hd__nand2b_2
*I *331:B I *D sky130_fd_sc_hd__or2_0
*I *193:DIODE I *D sky130_fd_sc_hd__diode_2
*I *194:DIODE I *D sky130_fd_sc_hd__diode_2
*CAP
1 gpio_defaults[11] 0.00160836
2 *332:B 0
3 *331:B 0
4 *193:DIODE 0
5 *194:DIODE 2.93925e-05
6 *3:37 0.000376635
7 *3:29 0.000576349
8 *3:24 0.00089313
9 *3:16 0.00227239
10 *194:DIODE *188:DIODE 2.84109e-05
11 *3:16 *317:A 0.000264533
12 *3:16 *354:SET_B 0.000266853
13 *3:16 *4:17 0.000154875
14 *3:16 *109:22 5.4216e-05
15 *3:16 *115:15 0.00072744
16 *3:16 *118:34 7.67491e-05
17 *3:16 *123:34 0.000377134
18 *3:16 *139:10 0.000142206
19 *3:24 *329:A 0.000376153
20 *3:24 *332:A_N 5.33005e-05
21 *3:24 *404:A 0.000236967
22 *3:24 *425:A 0.000413797
23 *3:24 *426:A 6.49189e-05
24 *3:24 *65:12 0.00103576
25 *3:24 *143:11 1.46231e-05
26 *3:24 *148:9 6.25005e-05
27 *3:29 *332:A_N 0.000135028
28 *3:29 *361:SET_B 0.000125564
29 *3:29 *419:A 0.000120188
30 *3:29 *119:38 4.94175e-05
31 *3:29 *143:11 1.21258e-05
32 *3:37 *208:DIODE 3.19935e-05
33 *3:37 *329:A 0.000178162
34 *3:37 *419:A 0.000345852
35 *176:DIODE *3:29 0.000346947
36 *176:DIODE *3:37 0.000631265
37 *1:27 *3:24 0.000777345
38 *1:38 *3:29 4.44838e-05
39 *2:22 *3:16 0
*RES
1 gpio_defaults[11] *3:16 44.4643 
2 *3:16 *3:24 25.8571 
3 *3:24 *3:29 11.1429 
4 *3:29 *3:37 15 
5 *3:37 *194:DIODE 9.83571 
6 *3:37 *193:DIODE 9.3 
7 *3:29 *331:B 13.8 
8 *3:24 *332:B 9.3 
*END

*D_NET *4 0.0154032
*CONN
*P gpio_defaults[12] I
*I *334:B I *D sky130_fd_sc_hd__nand2b_2
*I *333:B I *D sky130_fd_sc_hd__or2_0
*I *196:DIODE I *D sky130_fd_sc_hd__diode_2
*I *195:DIODE I *D sky130_fd_sc_hd__diode_2
*CAP
1 gpio_defaults[12] 0.00205538
2 *334:B 0.000154051
3 *333:B 7.3896e-05
4 *196:DIODE 0.000331469
5 *195:DIODE 7.00356e-05
6 *4:44 0.000506431
7 *4:27 0.00102092
8 *4:17 0.00253638
9 *195:DIODE *431:A 2.48421e-05
10 *196:DIODE *329:A 0.000174366
11 *196:DIODE *5:40 0.000376112
12 *196:DIODE *122:15 9.86082e-05
13 *333:B *333:A 2.83425e-05
14 *333:B *26:10 0.000178503
15 *333:B *67:7 6.05161e-06
16 *334:B *333:A 7.58841e-05
17 *334:B *414:A 2.45012e-05
18 *334:B *67:10 0.000131136
19 *334:B *99:8 5.24684e-06
20 *334:B *120:8 0.000192548
21 *4:17 *182:DIODE 2.84749e-05
22 *4:17 *211:DIODE 0.000280366
23 *4:17 *320:B 4.03721e-05
24 *4:17 *354:RESET_B 1.13968e-05
25 *4:17 *355:SET_B 9.77697e-05
26 *4:17 *364:CLK_N 0.00013625
27 *4:17 *365:SET_B 0.000536544
28 *4:17 *378:D 0
29 *4:17 *406:A 0.000321247
30 *4:17 *422:A 0.00125322
31 *4:17 *434:A 6.91846e-05
32 *4:17 *11:19 1.59347e-05
33 *4:17 *32:12 0.000848198
34 *4:17 *61:10 6.45108e-05
35 *4:17 *115:15 3.11713e-05
36 *4:17 *115:20 2.70725e-06
37 *4:17 *123:34 0.000990606
38 *4:17 *139:10 0.000141693
39 *4:27 *380:A 9.66977e-05
40 *4:27 *397:A 9.76435e-06
41 *4:27 *419:A 6.2127e-05
42 *4:27 *431:A 0.00111717
43 *4:27 *119:16 4.53378e-05
44 *4:27 *173:15 0.000618523
45 *4:44 *210:DIODE 3.14003e-05
46 *4:44 *380:A 9.58689e-05
47 *4:44 *414:A 3.29297e-05
48 *4:44 *26:10 5.33005e-05
49 *4:44 *67:7 1.04766e-05
50 *4:44 *120:8 2.50593e-05
51 *4:44 *121:7 0.000115352
52 *3:16 *4:17 0.000154875
*RES
1 gpio_defaults[12] *4:17 48.1607 
2 *4:17 *195:DIODE 15.1393 
3 *4:17 *4:27 18.1786 
4 *4:27 *196:DIODE 26.0143 
5 *4:27 *4:44 9.19643 
6 *4:44 *333:B 15.5679 
7 *4:44 *334:B 18.7821 
*END

*D_NET *5 0.0284019
*CONN
*P gpio_defaults[1] I
*I *328:B I *D sky130_fd_sc_hd__nand2b_2
*I *189:DIODE I *D sky130_fd_sc_hd__diode_2
*I *188:DIODE I *D sky130_fd_sc_hd__diode_2
*I *327:B I *D sky130_fd_sc_hd__or2_0
*CAP
1 gpio_defaults[1] 0.000412568
2 *328:B 0.0010813
3 *189:DIODE 0
4 *188:DIODE 0.00173517
5 *327:B 7.89811e-05
6 *5:40 0.00489863
7 *5:28 0.00608974
8 *5:11 0.00233653
9 *188:DIODE one 0.00016036
10 *188:DIODE pad_gpio_ana_pol 9.97875e-06
11 *188:DIODE zero 9.97164e-05
12 *188:DIODE *205:DIODE 4.7812e-05
13 *188:DIODE *208:DIODE 1.21258e-05
14 *188:DIODE *209:DIODE 0.000618847
15 *188:DIODE *384:A 7.60395e-05
16 *188:DIODE *94:8 0.000271155
17 *327:B *327:A 5.66971e-05
18 *328:B serial_clock_out 0.000305742
19 *328:B *313:B1 6.30931e-05
20 *328:B *359:SET_B 5.33005e-05
21 *328:B *34:11 0.000146021
22 *328:B *79:9 6.46173e-05
23 *328:B *97:15 6.57032e-05
24 *5:11 *179:DIODE 2.02794e-05
25 *5:11 *367:CLK 0.000201442
26 *5:11 *403:A 8.58741e-05
27 *5:11 *6:7 0.000514029
28 *5:11 *6:27 0.000785296
29 *5:11 *94:64 0.000197543
30 *5:11 *94:71 0.000198261
31 *5:11 *118:9 0.000266363
32 *5:11 *152:10 5.19522e-06
33 *5:28 pad_gpio_vtrip_sel 0.00288005
34 *5:28 *183:DIODE 9.00639e-05
35 *5:28 *326:B 7.44091e-05
36 *5:28 *327:A 0.000253908
37 *5:28 *346:A 7.91714e-05
38 *5:28 *377:D 0.00117164
39 *5:28 *379:RESET_B 0
40 *5:28 *6:27 7.48217e-06
41 *5:28 *32:12 6.20218e-05
42 *5:28 *61:10 0.000133812
43 *5:28 *93:8 0.000311284
44 *5:28 *94:60 0.00036301
45 *5:28 *117:13 0.000352147
46 *5:28 *148:9 0.000335319
47 *5:40 one 0
48 *5:40 pad_gpio_ana_pol 2.15327e-05
49 *5:40 *311:A_N 0.000118315
50 *5:40 *314:B 4.3588e-05
51 *5:40 *329:A 1.71144e-05
52 *5:40 *396:A 7.11037e-05
53 *5:40 *15:10 0.000113416
54 *5:40 *67:10 0.000102503
55 *5:40 *99:8 0.000135449
56 *5:40 *122:7 4.08637e-05
57 *5:40 *122:11 9.66977e-05
58 *194:DIODE *188:DIODE 2.84109e-05
59 *196:DIODE *5:40 0.000376112
60 *1:16 *5:11 0.000164022
*RES
1 gpio_defaults[1] *5:11 22.375 
2 *5:11 *327:B 10.6571 
3 *5:11 *5:28 25.044 
4 *5:28 *5:40 23.3102 
5 *5:40 *188:DIODE 43.7107 
6 *5:40 *189:DIODE 9.3 
7 *5:28 *328:B 24.4888 
*END

*D_NET *6 0.0147075
*CONN
*P gpio_defaults[2] I
*I *318:B I *D sky130_fd_sc_hd__nand2b_2
*I *178:DIODE I *D sky130_fd_sc_hd__diode_2
*I *317:B I *D sky130_fd_sc_hd__or2_0
*I *179:DIODE I *D sky130_fd_sc_hd__diode_2
*CAP
1 gpio_defaults[2] 0.000363518
2 *318:B 0.000350469
3 *178:DIODE 0.000354162
4 *317:B 5.74147e-05
5 *179:DIODE 9.95333e-05
6 *6:41 0.000886733
7 *6:27 0.00231988
8 *6:7 0.00254341
9 *178:DIODE *326:B 0.00024243
10 *178:DIODE *353:SET_B 6.19639e-06
11 *178:DIODE *355:D 4.26759e-05
12 *178:DIODE *358:SET_B 0.000344491
13 *178:DIODE *404:A 5.33005e-05
14 *178:DIODE *32:12 0.000237828
15 *178:DIODE *42:23 0.000143364
16 *178:DIODE *105:17 3.05829e-05
17 *178:DIODE *134:8 0.000141711
18 *317:B *317:A 2.59355e-05
19 *317:B *109:22 2.59355e-05
20 *317:B *115:15 6.30931e-05
21 *317:B *123:34 6.30931e-05
22 *318:B *318:A_N 0.000142703
23 *318:B *42:23 0.000478075
24 *318:B *134:8 0.000782023
25 *6:7 *369:D 4.7659e-05
26 *6:7 *7:12 0
27 *6:27 resetn_out 0.00157231
28 *6:27 *183:DIODE 0.000146197
29 *6:27 *326:B 0.000148695
30 *6:27 *369:D 0.000235036
31 *6:27 *7:12 0
32 *6:27 *8:19 0
33 *6:27 *11:19 0.000743254
34 *6:27 *94:60 5.09917e-05
35 *6:27 *152:10 0.000111398
36 *6:41 resetn_out 0.000366878
37 *6:41 *326:B 0.000157405
38 *1:16 *6:7 2.06655e-06
39 *5:11 *179:DIODE 2.02794e-05
40 *5:11 *6:7 0.000514029
41 *5:11 *6:27 0.000785296
42 *5:28 *6:27 7.48217e-06
*RES
1 gpio_defaults[2] *6:7 8.50893 
2 *6:7 *179:DIODE 15.0232 
3 *6:7 *6:27 18.6378 
4 *6:27 *317:B 18.6296 
5 *6:27 *6:41 4.03353 
6 *6:41 *178:DIODE 27.2684 
7 *6:41 *318:B 24.3982 
*END

*D_NET *7 0.0119744
*CONN
*P gpio_defaults[3] I
*I *323:B I *D sky130_fd_sc_hd__or2_0
*I *184:DIODE I *D sky130_fd_sc_hd__diode_2
*I *185:DIODE I *D sky130_fd_sc_hd__diode_2
*I *324:B I *D sky130_fd_sc_hd__nand2b_2
*CAP
1 gpio_defaults[3] 0.00167518
2 *323:B 3.45353e-05
3 *184:DIODE 0.000184623
4 *185:DIODE 0.000565185
5 *324:B 2.76949e-05
6 *7:35 0.000950789
7 *7:28 0.000517175
8 *7:14 0.000802423
9 *7:12 0.00216824
10 *184:DIODE *435:A 0.000267965
11 *185:DIODE *345:A 7.21379e-05
12 *185:DIODE *435:A 0.000306309
13 *185:DIODE *9:38 0.00019286
14 *185:DIODE *122:30 0.000146853
15 *185:DIODE *125:13 0.000131967
16 *185:DIODE *133:10 4.85758e-05
17 *185:DIODE *133:21 5.60463e-06
18 *323:B *323:A 6.45059e-05
19 *323:B *39:8 5.65955e-05
20 *323:B *57:14 7.01566e-05
21 *324:B *364:CLK_N 2.04681e-05
22 *7:12 *369:D 0.000103605
23 *7:12 *379:RESET_B 0
24 *7:12 *391:A 0.00163604
25 *7:12 *393:A 0.000469337
26 *7:12 *9:24 2.12733e-05
27 *7:12 *152:10 0.00021896
28 *7:14 *324:A_N 1.65169e-05
29 *7:14 *357:SET_B 1.28171e-05
30 *7:14 *391:A 0.000126332
31 *7:14 *436:A 0
32 *7:28 *323:A 0.000151793
33 *7:28 *357:SET_B 1.90303e-05
34 *7:28 *12:32 0.000132169
35 *7:28 *57:14 1.32293e-05
36 *7:28 *125:13 4.04224e-05
37 *7:28 *135:15 7.27183e-05
38 *7:35 *345:A 5.51716e-05
39 *7:35 *363:SET_B 0.000402081
40 *7:35 *364:SET_B 0.000173021
41 *6:7 *7:12 0
42 *6:27 *7:12 0
*RES
1 gpio_defaults[3] *7:12 45.1339 
2 *7:12 *7:14 6.08036 
3 *7:14 *324:B 10.0321 
4 *7:14 *7:28 14.8929 
5 *7:28 *7:35 14.7143 
6 *7:35 *185:DIODE 29.4607 
7 *7:35 *184:DIODE 11.8893 
8 *7:28 *323:B 10.6571 
*END

*D_NET *8 0.0184896
*CONN
*P gpio_defaults[4] I
*I *326:B I *D sky130_fd_sc_hd__nand2b_2
*I *187:DIODE I *D sky130_fd_sc_hd__diode_2
*I *325:B I *D sky130_fd_sc_hd__or2_0
*I *186:DIODE I *D sky130_fd_sc_hd__diode_2
*CAP
1 gpio_defaults[4] 0.000795975
2 *326:B 0.00219367
3 *187:DIODE 0
4 *325:B 3.68251e-05
5 *186:DIODE 0.00152749
6 *8:23 0.00218628
7 *8:19 0.00149484
8 *8:15 0.00386253
9 *186:DIODE *335:A 6.05207e-05
10 *186:DIODE *384:A 3.11088e-05
11 *186:DIODE *94:8 0.00066478
12 *326:B resetn_out 0.00018805
13 *326:B *312:A2 1.94945e-05
14 *326:B *326:A_N 0.000145239
15 *326:B *357:SET_B 0.00032482
16 *326:B *358:SET_B 0.0001691
17 *326:B *377:D 0.000116364
18 *326:B *11:19 0.000746065
19 *326:B *32:12 0.000401666
20 *326:B *34:11 5.26821e-05
21 *326:B *65:12 2.11419e-05
22 *326:B *116:76 0.000404016
23 *326:B *123:23 4.8817e-05
24 *326:B *133:21 0.000150264
25 *8:15 *319:A 2.05484e-05
26 *8:15 *392:A 0.000326069
27 *8:15 *410:A 2.11419e-05
28 *8:15 *429:A 0
29 *8:15 *430:A 5.49995e-05
30 *8:15 *9:13 0.000161383
31 *8:15 *10:21 0.000381552
32 *8:15 *130:18 0.000103056
33 *8:15 *138:9 0.000162304
34 *8:15 *165:18 5.29529e-05
35 *8:19 resetn_out 6.87106e-05
36 *8:19 *94:64 2.11419e-05
37 *8:19 *116:38 0.000132503
38 *8:19 *116:76 6.48889e-05
39 *8:23 *183:DIODE 0.000405046
40 *8:23 *403:A 0.0001829
41 *8:23 *94:64 5.31751e-05
42 *178:DIODE *326:B 0.00024243
43 *1:16 *8:19 1.25306e-05
44 *5:28 *326:B 7.44091e-05
45 *6:27 *326:B 0.000148695
46 *6:27 *8:19 0
47 *6:41 *326:B 0.000157405
*RES
1 gpio_defaults[4] *8:15 28.8832 
2 *8:15 *8:19 5.46339 
3 *8:19 *8:23 15.0357 
4 *8:23 *186:DIODE 46.6571 
5 *8:23 *325:B 14.3357 
6 *8:19 *187:DIODE 13.8 
7 *8:15 *326:B 38.0991 
*END

*D_NET *9 0.0123615
*CONN
*P gpio_defaults[5] I
*I *335:B I *D sky130_fd_sc_hd__or2_0
*I *198:DIODE I *D sky130_fd_sc_hd__diode_2
*I *197:DIODE I *D sky130_fd_sc_hd__diode_2
*I *336:B I *D sky130_fd_sc_hd__nand2b_2
*CAP
1 gpio_defaults[5] 0.00124089
2 *335:B 0
3 *198:DIODE 5.23783e-05
4 *197:DIODE 0
5 *336:B 0
6 *9:38 0.000299358
7 *9:24 0.00117806
8 *9:13 0.00217197
9 *198:DIODE *12:32 5.4959e-05
10 *198:DIODE *159:43 0.000171223
11 *9:13 *335:A 8.82593e-05
12 *9:13 *342:A 0.000576812
13 *9:13 *346:A 0.00125103
14 *9:13 *355:CLK_N 0.000686558
15 *9:13 *367:RESET_B 0.000112622
16 *9:13 *368:RESET_B 6.51343e-05
17 *9:13 *403:A 7.29082e-05
18 *9:13 *10:21 0.000184843
19 *9:13 *94:60 0.000291758
20 *9:13 *116:48 0.000197452
21 *9:13 *117:13 0.000119077
22 *9:13 *152:10 0.000433467
23 *9:24 *336:A_N 0.00032321
24 *9:24 *391:A 0.000523266
25 *9:24 *10:26 0.000430819
26 *9:24 *10:29 6.94441e-06
27 *9:24 *119:16 0.000346253
28 *9:24 *159:8 0.000129628
29 *9:24 *159:15 0.000320403
30 *9:38 *200:DIODE 9.84729e-05
31 *9:38 *363:SET_B 0.000180151
32 *9:38 *12:32 3.11088e-05
33 *9:38 *119:16 1.51571e-05
34 *9:38 *133:10 0.000144732
35 *9:38 *159:43 0.0001871
36 *185:DIODE *9:38 0.00019286
37 *7:12 *9:24 2.12733e-05
38 *8:15 *9:13 0.000161383
*RES
1 gpio_defaults[5] *9:13 46.4286 
2 *9:13 *9:24 38.8393 
3 *9:24 *336:B 9.3 
4 *9:24 *9:38 15.9286 
5 *9:38 *197:DIODE 9.3 
6 *9:38 *198:DIODE 11.0679 
7 *9:13 *335:B 13.8 
*END

*D_NET *10 0.0108587
*CONN
*P gpio_defaults[6] I
*I *337:B I *D sky130_fd_sc_hd__or2_0
*I *338:B I *D sky130_fd_sc_hd__nand2b_2
*I *199:DIODE I *D sky130_fd_sc_hd__diode_2
*I *200:DIODE I *D sky130_fd_sc_hd__diode_2
*CAP
1 gpio_defaults[6] 0.00150206
2 *337:B 1.69531e-05
3 *338:B 9.522e-05
4 *199:DIODE 0
5 *200:DIODE 0.000303034
6 *10:29 0.000442223
7 *10:26 0.000439568
8 *10:21 0.00172418
9 *200:DIODE *119:16 5.33005e-05
10 *200:DIODE *129:10 9.96553e-05
11 *200:DIODE *133:10 5.50052e-05
12 *200:DIODE *159:15 0.000220988
13 *200:DIODE *159:21 6.99965e-05
14 *200:DIODE *159:27 2.85234e-05
15 *200:DIODE *159:43 2.12733e-05
16 *337:B *337:A 5.33005e-05
17 *337:B *120:38 5.33005e-05
18 *338:B *314:A 0.000204318
19 *338:B *338:A_N 9.41642e-05
20 *10:21 *203:DIODE 0.000353078
21 *10:21 *337:A 0.000136166
22 *10:21 *346:A 1.71164e-05
23 *10:21 *371:D 0.00013063
24 *10:21 *371:RESET_B 0.000489282
25 *10:21 *402:A 4.47273e-05
26 *10:21 *410:A 8.09004e-06
27 *10:21 *13:20 2.68192e-05
28 *10:21 *93:8 0.000279625
29 *10:21 *94:60 0.0001125
30 *10:21 *109:22 9.61478e-05
31 *10:21 *117:13 0.000766796
32 *10:21 *147:11 0.000133691
33 *10:21 *165:18 5.45477e-05
34 *10:26 *203:DIODE 0.000524167
35 *10:26 *314:A 9.58632e-05
36 *10:26 *336:A_N 3.14003e-05
37 *10:26 *337:A 3.29297e-05
38 *10:26 *338:A_N 4.08637e-05
39 *10:26 *114:13 5.33005e-05
40 *10:26 *129:10 1.33329e-05
41 *10:26 *159:8 4.90115e-05
42 *10:29 *336:A_N 0.000360311
43 *10:29 *129:10 0.000428559
44 *8:15 *10:21 0.000381552
45 *9:13 *10:21 0.000184843
46 *9:24 *10:26 0.000430819
47 *9:24 *10:29 6.94441e-06
48 *9:38 *200:DIODE 9.84729e-05
*RES
1 gpio_defaults[6] *10:21 39.8705 
2 *10:21 *10:26 13.1607 
3 *10:26 *10:29 10.0893 
4 *10:29 *200:DIODE 20.1929 
5 *10:29 *199:DIODE 13.8 
6 *10:26 *338:B 11.4786 
7 *10:21 *337:B 14.3357 
*END

*D_NET *11 0.0109702
*CONN
*P gpio_defaults[7] I
*I *340:B I *D sky130_fd_sc_hd__nand2b_2
*I *202:DIODE I *D sky130_fd_sc_hd__diode_2
*I *201:DIODE I *D sky130_fd_sc_hd__diode_2
*I *339:B I *D sky130_fd_sc_hd__or2_0
*CAP
1 gpio_defaults[7] 0.00137091
2 *340:B 0
3 *202:DIODE 8.04636e-05
4 *201:DIODE 0.000453557
5 *339:B 8.08221e-05
6 *11:27 0.000694922
7 *11:21 0.000424636
8 *11:19 0.00155453
9 *201:DIODE *316:A_N 6.05161e-06
10 *201:DIODE *365:RESET_B 0.000257619
11 *201:DIODE *41:45 0.000336085
12 *201:DIODE *119:33 0.000108566
13 *201:DIODE *124:6 0.000337608
14 *202:DIODE *347:A 0.000175892
15 *202:DIODE *401:A 4.58194e-05
16 *339:B *339:A 9.41642e-05
17 *11:19 serial_data_out 0
18 *11:19 *319:A 0
19 *11:19 *319:B 0.000141935
20 *11:19 *366:RESET_B 0
21 *11:19 *392:A 5.96516e-05
22 *11:19 *430:A 0.000135501
23 *11:19 *12:7 7.28217e-05
24 *11:19 *13:13 0.000429101
25 *11:19 *32:12 9.48286e-05
26 *11:19 *53:10 2.42516e-05
27 *11:19 *57:14 0.000493183
28 *11:19 *109:22 2.18747e-05
29 *11:19 *115:15 0.000238881
30 *11:19 *123:34 0.000101245
31 *11:19 *130:18 3.20731e-05
32 *11:19 *145:25 0
33 *11:19 *165:18 0.000167774
34 *11:21 *322:B 1.1594e-05
35 *11:21 *400:A 1.02366e-05
36 *11:21 *13:31 0.000265145
37 *11:21 *32:12 0.00033536
38 *11:21 *115:15 3.10885e-05
39 *11:27 pad_gpio_slow_sel 1.19432e-05
40 *11:27 *13:31 6.5788e-05
41 *11:27 *32:12 0.000385186
42 *11:27 *154:10 0.000313843
43 *326:B *11:19 0.000746065
44 *2:22 *11:19 0
45 *4:17 *11:19 1.59347e-05
46 *6:27 *11:19 0.000743254
*RES
1 gpio_defaults[7] *11:19 40.9314 
2 *11:19 *11:21 4.67857 
3 *11:21 *11:27 10.3214 
4 *11:27 *339:B 10.6571 
5 *11:27 *201:DIODE 27.8536 
6 *11:21 *202:DIODE 15.5679 
7 *11:19 *340:B 13.8 
*END

*D_NET *12 0.0159902
*CONN
*P gpio_defaults[8] I
*I *319:B I *D sky130_fd_sc_hd__or2_0
*I *320:B I *D sky130_fd_sc_hd__nand2b_2
*I *180:DIODE I *D sky130_fd_sc_hd__diode_2
*I *181:DIODE I *D sky130_fd_sc_hd__diode_2
*CAP
1 gpio_defaults[8] 0.000146488
2 *319:B 0.000114585
3 *320:B 0.000583705
4 *180:DIODE 0
5 *181:DIODE 0.00111084
6 *12:32 0.000893008
7 *12:14 0.00218734
8 *12:11 0.00148703
9 *12:7 0.000980903
10 *181:DIODE *343:A 2.13481e-06
11 *181:DIODE *371:CLK 2.42516e-05
12 *181:DIODE *371:RESET_B 0.000216853
13 *181:DIODE *374:CLK 3.2687e-05
14 *181:DIODE *402:A 0.000219289
15 *181:DIODE *403:A 2.11336e-05
16 *319:B *392:A 0.000526026
17 *319:B *429:A 9.8396e-05
18 *319:B *430:A 9.86486e-06
19 *319:B *130:18 0.000173182
20 *320:B *342:A 0.000224341
21 *320:B *355:SET_B 2.51903e-05
22 *320:B *358:SET_B 9.29338e-05
23 *320:B *370:RESET_B 0.00019454
24 *320:B *374:D 6.57032e-05
25 *320:B *375:CLK 9.83388e-05
26 *320:B *422:A 9.18069e-05
27 *320:B *57:14 0.00018935
28 *320:B *59:15 9.69399e-05
29 *320:B *103:8 8.08608e-06
30 *320:B *115:19 2.59355e-05
31 *320:B *115:20 5.26224e-05
32 *320:B *118:34 9.11048e-06
33 *12:7 *430:A 7.58644e-05
34 *12:7 *13:13 8.85437e-05
35 *12:11 *366:D 0.00100495
36 *12:11 *430:A 0.000678832
37 *12:11 *57:14 0.000255471
38 *12:11 *59:15 0.000235726
39 *12:11 *130:18 0
40 *12:14 *343:A 2.34465e-05
41 *12:14 *374:CLK 7.4854e-05
42 *12:14 *374:D 6.05161e-06
43 *12:32 *323:A 4.3304e-06
44 *12:32 *357:SET_B 0.000849159
45 *12:32 *363:SET_B 0.000227347
46 *12:32 *113:8 0.000312969
47 *12:32 *125:13 0.00101089
48 *12:32 *133:10 0.000117016
49 *12:32 *133:21 0.000518423
50 *12:32 *135:15 3.03305e-05
51 *198:DIODE *12:32 5.4959e-05
52 *2:22 *320:B 0
53 *4:17 *320:B 4.03721e-05
54 *7:28 *12:32 0.000132169
55 *9:38 *12:32 3.11088e-05
56 *11:19 *319:B 0.000141935
57 *11:19 *12:7 7.28217e-05
*RES
1 gpio_defaults[8] *12:7 3.78571 
2 *12:7 *12:11 24.0536 
3 *12:11 *12:14 3.01786 
4 *12:14 *181:DIODE 22.1571 
5 *12:14 *12:32 44.5536 
6 *12:32 *180:DIODE 9.3 
7 *12:11 *320:B 40.0679 
8 *12:7 *319:B 19.2821 
*END

*D_NET *13 0.0248128
*CONN
*P gpio_defaults[9] I
*I *183:DIODE I *D sky130_fd_sc_hd__diode_2
*I *322:B I *D sky130_fd_sc_hd__nand2b_2
*I *321:B I *D sky130_fd_sc_hd__or2_0
*I *182:DIODE I *D sky130_fd_sc_hd__diode_2
*CAP
1 gpio_defaults[9] 0.00205772
2 *183:DIODE 0.000908225
3 *322:B 0.00112778
4 *321:B 0.000657847
5 *182:DIODE 0.000691615
6 *13:31 0.00248244
7 *13:20 0.00371739
8 *13:13 0.00442259
9 *182:DIODE *351:A 5.45307e-05
10 *182:DIODE *364:CLK_N 0.000439515
11 *182:DIODE *364:RESET_B 5.93614e-05
12 *182:DIODE *365:CLK_N 4.2628e-05
13 *182:DIODE *422:A 0.000170953
14 *182:DIODE *35:7 7.79102e-05
15 *182:DIODE *103:8 0.000177223
16 *183:DIODE pad_gpio_vtrip_sel 0.000108056
17 *183:DIODE *403:A 0.00021211
18 *321:B *321:A 0.000147718
19 *321:B *353:SET_B 4.21415e-05
20 *321:B *120:22 0.000758265
21 *322:B *322:A_N 9.40409e-05
22 *322:B *355:CLK_N 3.50949e-06
23 *322:B *355:D 0.000113062
24 *322:B *355:RESET_B 0.000127943
25 *322:B *358:SET_B 1.0484e-05
26 *322:B *400:A 7.69776e-06
27 *322:B *426:A 0.000220309
28 *322:B *115:15 6.05161e-06
29 *322:B *118:45 3.51224e-06
30 *13:13 serial_data_out 0
31 *13:13 *366:RESET_B 1.05998e-05
32 *13:13 *369:D 3.68477e-05
33 *13:13 *430:A 0.000475401
34 *13:13 *38:8 0.000242806
35 *13:13 *116:35 0.000233128
36 *13:20 pad_gpio_vtrip_sel 0.00167753
37 *13:20 *116:35 5.87752e-05
38 *13:20 *120:38 8.57736e-06
39 *13:31 pad_gpio_slow_sel 0.000234491
40 *13:31 *326:A_N 4.13349e-05