*SPEF "ieee 1481-1999"
*DESIGN "caravel_clocking"
*DATE "11:11:11 Fri 11 11, 1111"
*VENDOR "OpenRCX"
*PROGRAM "Parallel Extraction"
*VERSION "1.0"
*DESIGN_FLOW "NAME_SCOPE LOCAL" "PIN_CAP NONE"
*DIVIDER /
*DELIMITER :
*BUS_DELIMITER []
*T_UNIT 1 NS
*C_UNIT 1 PF
*R_UNIT 1 OHM
*L_UNIT 1 HENRY

*NAME_MAP
*3 core_clk
*4 ext_clk
*5 ext_clk_sel
*6 ext_reset
*7 pll_clk
*8 pll_clk90
*9 resetb
*10 resetb_sync
*11 sel2[0]
*12 sel2[1]
*13 sel2[2]
*14 sel[0]
*15 sel[1]
*16 sel[2]
*17 user_clk
*18 _000_
*19 _001_
*20 _002_
*21 _003_
*22 _004_
*23 _005_
*24 _006_
*25 _007_
*26 _008_
*27 _009_
*28 _010_
*29 _011_
*30 _012_
*31 _013_
*32 _014_
*33 _015_
*34 _016_
*35 _017_
*36 _018_
*37 _019_
*38 _020_
*39 _021_
*40 _022_
*41 _023_
*42 _024_
*43 _025_
*44 _026_
*45 _027_
*46 _028_
*47 _029_
*48 _030_
*49 _031_
*50 _032_
*51 _033_
*52 _034_
*53 _035_
*54 _036_
*55 _037_
*56 _038_
*57 _039_
*58 _040_
*59 _041_
*60 _042_
*61 _043_
*62 _044_
*63 _045_
*64 _046_
*65 _047_
*66 _048_
*67 _049_
*68 _050_
*69 _051_
*70 _052_
*71 _053_
*72 _054_
*73 _055_
*74 _056_
*75 _057_
*76 _058_
*77 _059_
*78 _060_
*79 _061_
*80 _062_
*81 _063_
*82 _064_
*83 _065_
*84 _066_
*85 _067_
*86 _068_
*87 _069_
*88 _070_
*89 _071_
*90 _072_
*91 _073_
*92 _074_
*93 _075_
*94 _076_
*95 _077_
*96 _078_
*97 _088_
*98 _089_
*99 _090_
*100 _091_
*101 _092_
*102 _093_
*103 _094_
*104 _095_
*105 _096_
*106 _097_
*107 _098_
*108 _099_
*109 _100_
*110 _101_
*111 _102_
*112 _103_
*113 _104_
*114 _105_
*115 _106_
*116 _107_
*117 _108_
*118 _109_
*119 _110_
*120 _111_
*121 _112_
*122 _113_
*123 _114_
*124 _115_
*125 _116_
*126 _117_
*127 _118_
*128 _119_
*129 _120_
*130 _121_
*131 _122_
*132 _123_
*133 _124_
*134 _125_
*135 _126_
*136 _127_
*137 _128_
*138 _129_
*139 _130_
*140 _131_
*141 _132_
*142 _133_
*143 _134_
*144 _135_
*145 _136_
*146 _137_
*147 _138_
*148 _139_
*149 _140_
*150 _141_
*151 _142_
*152 _143_
*153 _144_
*154 _145_
*155 _146_
*156 _147_
*157 _148_
*158 _149_
*159 _150_
*160 _151_
*161 _152_
*162 _153_
*163 _154_
*164 _155_
*165 _156_
*166 _157_
*167 _158_
*168 _159_
*169 _160_
*170 _161_
*171 _162_
*172 _163_
*173 _164_
*174 _165_
*175 _166_
*176 _167_
*177 _168_
*178 _169_
*179 _170_
*180 _171_
*181 _172_
*182 _173_
*183 _174_
*184 _175_
*185 _176_
*186 _177_
*187 _178_
*188 _179_
*189 _180_
*190 _181_
*191 _182_
*192 _183_
*193 _184_
*194 _185_
*195 _186_
*196 _187_
*197 _188_
*198 _189_
*199 _190_
*200 _191_
*201 _192_
*202 _193_
*203 _194_
*204 _195_
*205 _196_
*206 _197_
*207 _198_
*208 _199_
*209 _200_
*210 _201_
*211 _202_
*212 _203_
*213 _204_
*214 _205_
*215 _206_
*216 _207_
*217 _208_
*218 _209_
*219 _210_
*220 _211_
*221 _212_
*222 _213_
*223 _214_
*224 clknet_0_ext_clk
*225 clknet_0_pll_clk
*226 clknet_0_pll_clk90
*227 clknet_1_0_0_ext_clk
*228 clknet_1_0_0_pll_clk
*229 clknet_1_0_0_pll_clk90
*230 clknet_1_1_0_ext_clk
*231 clknet_1_1_0_pll_clk
*232 clknet_1_1_0_pll_clk90
*233 divider\.even_0\.N\[0\]
*234 divider\.even_0\.N\[1\]
*235 divider\.even_0\.N\[2\]
*236 divider\.even_0\.counter\[0\]
*237 divider\.even_0\.counter\[1\]
*238 divider\.even_0\.counter\[2\]
*239 divider\.even_0\.out_counter
*240 divider\.odd_0\.counter2\[0\]
*241 divider\.odd_0\.counter2\[1\]
*242 divider\.odd_0\.counter2\[2\]
*243 divider\.odd_0\.counter\[0\]
*244 divider\.odd_0\.counter\[1\]
*245 divider\.odd_0\.counter\[2\]
*246 divider\.odd_0\.initial_begin\[0\]
*247 divider\.odd_0\.initial_begin\[1\]
*248 divider\.odd_0\.initial_begin\[2\]
*249 divider\.odd_0\.old_N\[0\]
*250 divider\.odd_0\.old_N\[1\]
*251 divider\.odd_0\.old_N\[2\]
*252 divider\.odd_0\.out_counter
*253 divider\.odd_0\.out_counter2
*254 divider\.odd_0\.rst_pulse
*255 divider\.out
*256 divider\.syncNp\[0\]
*257 divider\.syncNp\[1\]
*258 divider\.syncNp\[2\]
*259 divider2\.even_0\.N\[0\]
*260 divider2\.even_0\.N\[1\]
*261 divider2\.even_0\.N\[2\]
*262 divider2\.even_0\.counter\[0\]
*263 divider2\.even_0\.counter\[1\]
*264 divider2\.even_0\.counter\[2\]
*265 divider2\.even_0\.out_counter
*266 divider2\.odd_0\.counter2\[0\]
*267 divider2\.odd_0\.counter2\[1\]
*268 divider2\.odd_0\.counter2\[2\]
*269 divider2\.odd_0\.counter\[0\]
*270 divider2\.odd_0\.counter\[1\]
*271 divider2\.odd_0\.counter\[2\]
*272 divider2\.odd_0\.initial_begin\[0\]
*273 divider2\.odd_0\.initial_begin\[1\]
*274 divider2\.odd_0\.initial_begin\[2\]
*275 divider2\.odd_0\.old_N\[0\]
*276 divider2\.odd_0\.old_N\[1\]
*277 divider2\.odd_0\.old_N\[2\]
*278 divider2\.odd_0\.out_counter
*279 divider2\.odd_0\.out_counter2
*280 divider2\.odd_0\.rst_pulse
*281 divider2\.out
*282 divider2\.syncNp\[0\]
*283 divider2\.syncNp\[1\]
*284 divider2\.syncNp\[2\]
*285 ext_clk_syncd
*286 ext_clk_syncd_pre
*287 net1
*288 net10
*289 net11
*290 net12
*291 net13
*292 net14
*293 net15
*294 net16
*295 net17
*296 net18
*297 net19
*298 net2
*299 net20
*300 net21
*301 net22
*302 net23
*303 net24
*304 net25
*305 net26
*306 net27
*307 net28
*308 net29
*309 net3
*310 net30
*311 net31
*312 net32
*313 net33
*314 net34
*315 net35
*316 net36
*317 net37
*318 net38
*319 net4
*320 net5
*321 net6
*322 net7
*323 net8
*324 net9
*325 pll_clk_sel
*326 reset_delay\[0\]
*327 reset_delay\[1\]
*328 reset_delay\[2\]
*329 use_pll_first
*330 use_pll_second
*331 ANTENNA__283__A2
*332 ANTENNA__322__A
*333 ANTENNA__323__B_N
*334 ANTENNA__347__S
*335 ANTENNA__349__B
*336 ANTENNA__421__A1
*337 ANTENNA__422__A1
*338 ANTENNA__425__A1
*339 ANTENNA__439__D
*340 ANTENNA__445__SET_B
*341 ANTENNA__446__SET_B
*342 ANTENNA__447__SET_B
*343 ANTENNA__448__RESET_B
*344 ANTENNA__449__RESET_B
*345 ANTENNA__450__RESET_B
*346 ANTENNA__451__RESET_B
*347 ANTENNA__452__SET_B
*348 ANTENNA__453__RESET_B
*349 ANTENNA__454__RESET_B
*350 ANTENNA__455__SET_B
*351 ANTENNA__456__RESET_B
*352 ANTENNA__457__RESET_B
*353 ANTENNA__458__SET_B
*354 ANTENNA__459__RESET_B
*355 ANTENNA__460__RESET_B
*356 ANTENNA__461__SET_B
*357 ANTENNA__462__RESET_B
*358 ANTENNA__463__SET_B
*359 ANTENNA__464__RESET_B
*360 ANTENNA__465__SET_B
*361 ANTENNA__466__RESET_B
*362 ANTENNA__467__RESET_B
*363 ANTENNA__468__SET_B
*364 ANTENNA__469__RESET_B
*365 ANTENNA__470__RESET_B
*366 ANTENNA__471__SET_B
*367 ANTENNA__472__RESET_B
*368 ANTENNA__473__SET_B
*369 ANTENNA__474__RESET_B
*370 ANTENNA__475__RESET_B
*371 ANTENNA__476__SET_B
*372 ANTENNA__477__RESET_B
*373 ANTENNA__478__SET_B
*374 ANTENNA__479__SET_B
*375 ANTENNA__480__RESET_B
*376 ANTENNA__481__SET_B
*377 ANTENNA__482__RESET_B
*378 ANTENNA__483__SET_B
*379 ANTENNA__484__RESET_B
*380 ANTENNA__485__SET_B
*381 ANTENNA__486__RESET_B
*382 ANTENNA__487__RESET_B
*383 ANTENNA__488__SET_B
*384 ANTENNA__489__RESET_B
*385 ANTENNA__490__SET_B
*386 ANTENNA__491__RESET_B
*387 ANTENNA__492__SET_B
*388 ANTENNA__493__RESET_B
*389 ANTENNA__494__RESET_B
*390 ANTENNA_clkbuf_0_ext_clk_A
*391 ANTENNA_clkbuf_0_pll_clk90_A
*392 ANTENNA_clkbuf_0_pll_clk_A
*393 ANTENNA_input1_A
*394 ANTENNA_input2_A
*395 ANTENNA_input3_A
*396 ANTENNA_input4_A
*397 ANTENNA_input5_A
*398 ANTENNA_input6_A
*399 ANTENNA_input7_A
*400 ANTENNA_input8_A
*401 ANTENNA_input9_A
*402 FILLER_0_101
*403 FILLER_0_105
*404 FILLER_0_11
*405 FILLER_0_113
*406 FILLER_0_122
*407 FILLER_0_131
*408 FILLER_0_142
*409 FILLER_0_144
*410 FILLER_0_157
*411 FILLER_0_165
*412 FILLER_0_17
*413 FILLER_0_170
*414 FILLER_0_189
*415 FILLER_0_196
*416 FILLER_0_25
*417 FILLER_0_29
*418 FILLER_0_3
*419 FILLER_0_40
*420 FILLER_0_61
*421 FILLER_0_66
*422 FILLER_0_83
*423 FILLER_10_116
*424 FILLER_10_118
*425 FILLER_10_141
*426 FILLER_10_151
*427 FILLER_10_166
*428 FILLER_10_170
*429 FILLER_10_196
*430 FILLER_10_3
*431 FILLER_10_37
*432 FILLER_10_40
*433 FILLER_10_7
*434 FILLER_10_73
*435 FILLER_10_92
*436 FILLER_11_101
*437 FILLER_11_105
*438 FILLER_11_117
*439 FILLER_11_125
*440 FILLER_11_131
*441 FILLER_11_143
*442 FILLER_11_155
*443 FILLER_11_157
*444 FILLER_11_193
*445 FILLER_11_201
*446 FILLER_11_25
*447 FILLER_11_30
*448 FILLER_11_42
*449 FILLER_11_49
*450 FILLER_11_53
*451 FILLER_11_75
*452 FILLER_11_79
*453 FILLER_12_11
*454 FILLER_12_116
*455 FILLER_12_139
*456 FILLER_12_14
*457 FILLER_12_144
*458 FILLER_12_152
*459 FILLER_12_159
*460 FILLER_12_196
*461 FILLER_12_3
*462 FILLER_12_38
*463 FILLER_12_40
*464 FILLER_12_59
*465 FILLER_12_7
*466 FILLER_12_92
*467 FILLER_13_101
*468 FILLER_13_105
*469 FILLER_13_126
*470 FILLER_13_138
*471 FILLER_13_146
*472 FILLER_13_15
*473 FILLER_13_180
*474 FILLER_13_19
*475 FILLER_13_190
*476 FILLER_13_3
*477 FILLER_13_34
*478 FILLER_13_49
*479 FILLER_13_61
*480 FILLER_13_68
*481 FILLER_14_11
*482 FILLER_14_116
*483 FILLER_14_132
*484 FILLER_14_142
*485 FILLER_14_146
*486 FILLER_14_170
*487 FILLER_14_196
*488 FILLER_14_3
*489 FILLER_14_36
*490 FILLER_14_40
*491 FILLER_14_52
*492 FILLER_14_89
*493 FILLER_14_92
*494 FILLER_15_113
*495 FILLER_15_146
*496 FILLER_15_160
*497 FILLER_15_192
*498 FILLER_15_196
*499 FILLER_15_53
*500 FILLER_15_59
*501 FILLER_15_70
*502 FILLER_15_79
*503 FILLER_16_104
*504 FILLER_16_127
*505 FILLER_16_142
*506 FILLER_16_165
*507 FILLER_16_196
*508 FILLER_16_3
*509 FILLER_16_34
*510 FILLER_16_38
*511 FILLER_16_40
*512 FILLER_16_50
*513 FILLER_16_62
*514 FILLER_16_66
*515 FILLER_16_78
*516 FILLER_16_88
*517 FILLER_16_9
*518 FILLER_17_102
*519 FILLER_17_105
*520 FILLER_17_135
*521 FILLER_17_157
*522 FILLER_17_181
*523 FILLER_17_191
*524 FILLER_17_199
*525 FILLER_17_47
*526 FILLER_17_51
*527 FILLER_17_75
*528 FILLER_17_79
*529 FILLER_18_138
*530 FILLER_18_165
*531 FILLER_18_170
*532 FILLER_18_196
*533 FILLER_18_3
*534 FILLER_18_38
*535 FILLER_18_45
*536 FILLER_18_57
*537 FILLER_18_87
*538 FILLER_18_9
*539 FILLER_18_94
*540 FILLER_19_101
*541 FILLER_19_105
*542 FILLER_19_11
*543 FILLER_19_112
*544 FILLER_19_116
*545 FILLER_19_120
*546 FILLER_19_128
*547 FILLER_19_14
*548 FILLER_19_140
*549 FILLER_19_144
*550 FILLER_19_154
*551 FILLER_19_160
*552 FILLER_19_166
*553 FILLER_19_178
*554 FILLER_19_188
*555 FILLER_19_192
*556 FILLER_19_20
*557 FILLER_19_24
*558 FILLER_19_27
*559 FILLER_19_3
*560 FILLER_19_47
*561 FILLER_19_51
*562 FILLER_19_53
*563 FILLER_19_66
*564 FILLER_19_72
*565 FILLER_19_82
*566 FILLER_1_127
*567 FILLER_1_148
*568 FILLER_1_155
*569 FILLER_1_25
*570 FILLER_1_3
*571 FILLER_1_45
*572 FILLER_1_49
*573 FILLER_1_77
*574 FILLER_2_10
*575 FILLER_2_115
*576 FILLER_2_125
*577 FILLER_2_131
*578 FILLER_2_141
*579 FILLER_2_147
*580 FILLER_2_151
*581 FILLER_2_170
*582 FILLER_2_196
*583 FILLER_2_3
*584 FILLER_2_38
*585 FILLER_2_42
*586 FILLER_2_50
*587 FILLER_2_60
*588 FILLER_2_82
*589 FILLER_3_12
*590 FILLER_3_131
*591 FILLER_3_137
*592 FILLER_3_147
*593 FILLER_3_166
*594 FILLER_3_172
*595 FILLER_3_199
*596 FILLER_3_20
*597 FILLER_3_3
*598 FILLER_3_77
*599 FILLER_3_95
*600 FILLER_3_99
*601 FILLER_4_100
*602 FILLER_4_107
*603 FILLER_4_11
*604 FILLER_4_115
*605 FILLER_4_118
*606 FILLER_4_131
*607 FILLER_4_14
*608 FILLER_4_3
*609 FILLER_4_34
*610 FILLER_4_47
*611 FILLER_4_57
*612 FILLER_4_7
*613 FILLER_4_83
*614 FILLER_4_92
*615 FILLER_5_103
*616 FILLER_5_108
*617 FILLER_5_120
*618 FILLER_5_197
*619 FILLER_5_201
*620 FILLER_5_25
*621 FILLER_5_51
*622 FILLER_5_76
*623 FILLER_5_83
*624 FILLER_5_99
*625 FILLER_6_11
*626 FILLER_6_113
*627 FILLER_6_125
*628 FILLER_6_131
*629 FILLER_6_137
*630 FILLER_6_168
*631 FILLER_6_17
*632 FILLER_6_196
*633 FILLER_6_25
*634 FILLER_6_28
*635 FILLER_6_3
*636 FILLER_6_37
*637 FILLER_6_56
*638 FILLER_6_64
*639 FILLER_6_66
*640 FILLER_6_78
*641 FILLER_6_84
*642 FILLER_7_105
*643 FILLER_7_125
*644 FILLER_7_129
*645 FILLER_7_131
*646 FILLER_7_155
*647 FILLER_7_187
*648 FILLER_7_200
*649 FILLER_7_27
*650 FILLER_7_3
*651 FILLER_7_50
*652 FILLER_7_53
*653 FILLER_7_67
*654 FILLER_7_75
*655 FILLER_7_82
*656 FILLER_7_90
*657 FILLER_7_98
*658 FILLER_8_12
*659 FILLER_8_127
*660 FILLER_8_131
*661 FILLER_8_170
*662 FILLER_8_3
*663 FILLER_8_37
*664 FILLER_8_55
*665 FILLER_8_90
*666 FILLER_8_92
*667 FILLER_9_103
*668 FILLER_9_14
*669 FILLER_9_151
*670 FILLER_9_18
*671 FILLER_9_190
*672 FILLER_9_3
*673 FILLER_9_43
*674 FILLER_9_62
*675 FILLER_9_68
*676 FILLER_9_72
*677 FILLER_9_77
*678 FILLER_9_79
*679 FILLER_9_87
*680 FILLER_9_97
*681 PHY_0
*682 PHY_1
*683 PHY_10
*684 PHY_11
*685 PHY_12
*686 PHY_13
*687 PHY_14
*688 PHY_15
*689 PHY_16
*690 PHY_17
*691 PHY_18
*692 PHY_19
*693 PHY_2
*694 PHY_20
*695 PHY_21
*696 PHY_22
*697 PHY_23
*698 PHY_24
*699 PHY_25
*700 PHY_26
*701 PHY_27
*702 PHY_28
*703 PHY_29
*704 PHY_3
*705 PHY_30
*706 PHY_31
*707 PHY_32
*708 PHY_33
*709 PHY_34
*710 PHY_35
*711 PHY_36
*712 PHY_37
*713 PHY_38
*714 PHY_39
*715 PHY_4
*716 PHY_5
*717 PHY_6
*718 PHY_7
*719 PHY_8
*720 PHY_9
*721 TAP_100
*722 TAP_101
*723 TAP_102
*724 TAP_103
*725 TAP_104
*726 TAP_105
*727 TAP_106
*728 TAP_107
*729 TAP_108
*730 TAP_109
*731 TAP_110
*732 TAP_111
*733 TAP_112
*734 TAP_113
*735 TAP_114
*736 TAP_115
*737 TAP_116
*738 TAP_117
*739 TAP_118
*740 TAP_119
*741 TAP_120
*742 TAP_121
*743 TAP_122
*744 TAP_123
*745 TAP_124
*746 TAP_125
*747 TAP_126
*748 TAP_127
*749 TAP_128
*750 TAP_129
*751 TAP_130
*752 TAP_131
*753 TAP_132
*754 TAP_133
*755 TAP_134
*756 TAP_135
*757 TAP_136
*758 TAP_137
*759 TAP_138
*760 TAP_139
*761 TAP_140
*762 TAP_141
*763 TAP_142
*764 TAP_143
*765 TAP_144
*766 TAP_145
*767 TAP_146
*768 TAP_147
*769 TAP_148
*770 TAP_149
*771 TAP_150
*772 TAP_151
*773 TAP_152
*774 TAP_153
*775 TAP_154
*776 TAP_155
*777 TAP_156
*778 TAP_157
*779 TAP_158
*780 TAP_159
*781 TAP_160
*782 TAP_161
*783 TAP_162
*784 TAP_163
*785 TAP_164
*786 TAP_165
*787 TAP_166
*788 TAP_167
*789 TAP_168
*790 TAP_169
*791 TAP_170
*792 TAP_171
*793 TAP_172
*794 TAP_173
*795 TAP_174
*796 TAP_175
*797 TAP_176
*798 TAP_177
*799 TAP_178
*800 TAP_179
*801 TAP_180
*802 TAP_181
*803 TAP_182
*804 TAP_183
*805 TAP_184
*806 TAP_185
*807 TAP_186
*808 TAP_187
*809 TAP_188
*810 TAP_189
*811 TAP_190
*812 TAP_191
*813 TAP_192
*814 TAP_193
*815 TAP_194
*816 TAP_195
*817 TAP_196
*818 TAP_197
*819 TAP_198
*820 TAP_199
*821 TAP_200
*822 TAP_201
*823 TAP_202
*824 TAP_203
*825 TAP_204
*826 TAP_40
*827 TAP_41
*828 TAP_42
*829 TAP_43
*830 TAP_44
*831 TAP_45
*832 TAP_46
*833 TAP_47
*834 TAP_48
*835 TAP_49
*836 TAP_50
*837 TAP_51
*838 TAP_52
*839 TAP_53
*840 TAP_54
*841 TAP_55
*842 TAP_56
*843 TAP_57
*844 TAP_58
*845 TAP_59
*846 TAP_60
*847 TAP_61
*848 TAP_62
*849 TAP_63
*850 TAP_64
*851 TAP_65
*852 TAP_66
*853 TAP_67
*854 TAP_68
*855 TAP_69
*856 TAP_70
*857 TAP_71
*858 TAP_72
*859 TAP_73
*860 TAP_74
*861 TAP_75
*862 TAP_76
*863 TAP_77
*864 TAP_78
*865 TAP_79
*866 TAP_80
*867 TAP_81
*868 TAP_82
*869 TAP_83
*870 TAP_84
*871 TAP_85
*872 TAP_86
*873 TAP_87
*874 TAP_88
*875 TAP_89
*876 TAP_90
*877 TAP_91
*878 TAP_92
*879 TAP_93
*880 TAP_94
*881 TAP_95
*882 TAP_96
*883 TAP_97
*884 TAP_98
*885 TAP_99
*886 _216_
*887 _217_
*888 _218_
*889 _219_
*890 _220_
*891 _221_
*892 _222_
*893 _223_
*894 _224_
*895 _225_
*896 _226_
*897 _227_
*898 _228_
*899 _229_
*900 _230_
*901 _231_
*902 _232_
*903 _233_
*904 _234_
*905 _235_
*906 _236_
*907 _237_
*908 _238_
*909 _239_
*910 _240_
*911 _241_
*912 _242_
*913 _243_
*914 _244_
*915 _245_
*916 _246_
*917 _247__1
*918 _248_
*919 _249_
*920 _250_
*921 _251_
*922 _252__2
*923 _253_
*924 _254_
*925 _255_
*926 _256_
*927 _257_
*928 _258_
*929 _259_
*930 _260_
*931 _261_
*932 _262_
*933 _263_
*934 _264_
*935 _265_
*936 _266_
*937 _267__3
*938 _268_
*939 _269_
*940 _270_
*941 _271_
*942 _272_
*943 _273_
*944 _274_
*945 _275_
*946 _276_
*947 _277_
*948 _278_
*949 _279_
*950 _280_
*951 _281_
*952 _282_
*953 _283_
*954 _284_
*955 _285_
*956 _286_
*957 _287_
*958 _288_
*959 _289_
*960 _290_
*961 _291_
*962 _292_
*963 _293_
*964 _294_
*965 _295_
*966 _296_
*967 _297_
*968 _298_
*969 _299_
*970 _300__4
*971 _301_
*972 _302_
*973 _303_
*974 _304_
*975 _305__5
*976 _306_
*977 _307_
*978 _308_
*979 _309_
*980 _310_
*981 _311_
*982 _312_
*983 _313_
*984 _314_
*985 _315_
*986 _316_
*987 _317_
*988 _318_
*989 _319_
*990 _320_
*991 _321_
*992 _322_
*993 _323_
*994 _324_
*995 _325_
*996 _326_
*997 _327_
*998 _328_
*999 _329_
*1000 _330_
*1001 _331_
*1002 _332_
*1003 _333__6
*1004 _334_
*1005 _335_
*1006 _336_
*1007 _337_
*1008 _338_
*1009 _339_
*1010 _340_
*1011 _341_
*1012 _342_
*1013 _343_
*1014 _344__9
*1015 _345__8
*1016 _346__7
*1017 _347_
*1018 _348_
*1019 _349_
*1020 _350_
*1021 _351_
*1022 _352_
*1023 _353_
*1024 _354_
*1025 _355_
*1026 _356_
*1027 _357_
*1028 _358_
*1029 _359_
*1030 _360_
*1031 _361_
*1032 _362_
*1033 _363_
*1034 _364_
*1035 _365_
*1036 _366_
*1037 _367_
*1038 _368_
*1039 _369_
*1040 _370_
*1041 _371_
*1042 _372_
*1043 _373_
*1044 _374_
*1045 _375_
*1046 _376_
*1047 _377_
*1048 _378_
*1049 _379_
*1050 _380_
*1051 _381_
*1052 _382_
*1053 _383_
*1054 _384_
*1055 _385_
*1056 _386_
*1057 _387_
*1058 _388_
*1059 _389_
*1060 _390_
*1061 _391_
*1062 _392_
*1063 _393_
*1064 _394_
*1065 _395_
*1066 _396__13
*1067 _397_
*1068 _398_
*1069 _399_
*1070 _400_
*1071 _401_
*1072 _402_
*1073 _403_
*1074 _404_
*1075 _405_
*1076 _406_
*1077 _407_
*1078 _408_
*1079 _409_
*1080 _410_
*1081 _411_
*1082 _412_
*1083 _413_
*1084 _414_
*1085 _415_
*1086 _416_
*1087 _417_
*1088 _418_
*1089 _419_
*1090 _420_
*1091 _421_
*1092 _422_
*1093 _423_
*1094 _424_
*1095 _425_
*1096 _426_
*1097 _427_
*1098 _428_
*1099 _429_
*1100 _430_
*1101 _431_
*1102 _432_
*1103 _433_
*1104 _434_
*1105 _435_
*1106 _436_
*1107 _437_
*1108 _438_
*1109 _439_
*1110 _440_
*1111 _441_
*1112 _442_
*1113 _443_
*1114 _444_
*1115 _445_
*1116 _446_
*1117 _447_
*1118 _448_
*1119 _449_
*1120 _450_
*1121 _451_
*1122 _452_
*1123 _453_
*1124 _454_
*1125 _455_
*1126 _456_
*1127 _457_
*1128 _458_
*1129 _459_
*1130 _460_
*1131 _461_
*1132 _462_
*1133 _463_
*1134 _464_
*1135 _465_
*1136 _466_
*1137 _467_
*1138 _468_
*1139 _469_
*1140 _470_
*1141 _471_
*1142 _472_
*1143 _473_
*1144 _474_
*1145 _475_
*1146 _476_
*1147 _477_
*1148 _478_
*1149 _479_
*1150 _480_
*1151 _481_
*1152 _482_
*1153 _483_
*1154 _484_
*1155 _485_
*1156 _486_
*1157 _487_
*1158 _488_
*1159 _489_
*1160 _490_
*1161 _491_
*1162 _492_
*1163 _493_
*1164 _494_
*1165 clkbuf_0_ext_clk
*1166 clkbuf_0_pll_clk
*1167 clkbuf_0_pll_clk90
*1168 clkbuf_1_0_0_ext_clk
*1169 clkbuf_1_0_0_pll_clk
*1170 clkbuf_1_0_0_pll_clk90
*1171 clkbuf_1_1_0_ext_clk
*1172 clkbuf_1_1_0_pll_clk
*1173 clkbuf_1_1_0_pll_clk90
*1174 hold1
*1175 hold2
*1176 hold3
*1177 input1
*1178 input2
*1179 input3
*1180 input4
*1181 input5
*1182 input6
*1183 input7
*1184 input8
*1185 input9
*1186 output10
*1187 output11
*1188 output12
*1189 rebuffer10
*1190 rebuffer11
*1191 rebuffer12
*1192 rebuffer13
*1193 rebuffer14
*1194 rebuffer16
*1195 rebuffer5
*1196 rebuffer6
*1197 rebuffer7
*1198 rebuffer9
*1199 split15
*1200 split4
*1201 split8

*PORTS
core_clk O
ext_clk I
ext_clk_sel I
ext_reset I
pll_clk I
pll_clk90 I
resetb I
resetb_sync O
sel2[0] I
sel2[1] I
sel2[2] I
sel[0] I
sel[1] I
sel[2] I
user_clk O

*D_NET *3 0.000410762
*CONN
*P core_clk O
*I *1186:X O *D sky130_fd_sc_hd__clkbuf_1
*CAP
1 core_clk 0.000205381
2 *1186:X 0.000205381
*RES
1 *1186:X core_clk 17.8118 
*END

*D_NET *4 0.00817965
*CONN
*P ext_clk I
*I *1165:A I *D sky130_fd_sc_hd__clkbuf_16
*I *390:DIODE I *D sky130_fd_sc_hd__diode_2
*CAP
1 ext_clk 0.000830856
2 *1165:A 8.04104e-05
3 *390:DIODE 0
4 *4:11 0.00265291
5 *4:7 0.00340335
6 *1165:A *145:54 7.79978e-05
7 *1165:A *146:66 0.000113968
8 *1165:A *271:30 3.31733e-05
9 *4:7 *897:A2 0
10 *4:7 *933:A 0
11 *4:7 *1054:B 0
12 *4:7 *1101:A0 0
13 *4:7 *52:28 7.14629e-05
14 *4:7 *159:10 6.15948e-05
15 *4:11 *383:DIODE 1.28022e-05
16 *4:11 *898:A 0.00017933
17 *4:11 *901:A 0.000138783
18 *4:11 *911:C 1.88914e-05
19 *4:11 *1076:A0 2.19341e-05
20 *4:11 *1078:S 0
21 *4:11 *1158:D 0.000213674
22 *4:11 *1158:CLK 2.78496e-05
23 *4:11 *1174:A 1.64983e-05
24 *4:11 *140:7 6.08467e-05
25 *4:11 *270:21 2.85303e-06
26 *4:11 *271:30 0.000160467
*RES
1 ext_clk *4:7 23.8947 
2 *4:7 *4:11 46.0058 
3 *4:11 *390:DIODE 13.7491 
4 *4:11 *1165:A 16.4439 
*END

*D_NET *5 0.000614444
*CONN
*P ext_clk_sel I
*I *1177:A I *D sky130_fd_sc_hd__dlymetal6s2s_1
*I *393:DIODE I *D sky130_fd_sc_hd__diode_2
*CAP
1 ext_clk_sel 0.000206753
2 *1177:A 1.23676e-05
3 *393:DIODE 8.81011e-05
4 *5:7 0.000307222
5 *393:DIODE *240:9 0
6 *1177:A *240:9 0
*RES
1 ext_clk_sel *5:7 4.12039 
2 *5:7 *393:DIODE 15.7888 
3 *5:7 *1177:A 14.1278 
*END

*D_NET *6 0.00124179
*CONN
*P ext_reset I
*I *1178:A I *D sky130_fd_sc_hd__clkbuf_1
*I *394:DIODE I *D sky130_fd_sc_hd__diode_2
*CAP
1 ext_reset 0.00035395
2 *1178:A 0
3 *394:DIODE 0.00016568
4 *6:11 0.00051963
5 *394:DIODE *1063:A 6.94431e-05
6 *394:DIODE *1187:A 6.97525e-05
7 *6:11 *8:7 6.33375e-05
*RES
1 ext_reset *6:11 13.9241 
2 *6:11 *394:DIODE 13.8789 
3 *6:11 *1178:A 9.24915 
*END

*D_NET *7 0.00835294
*CONN
*P pll_clk I
*I *392:DIODE I *D sky130_fd_sc_hd__diode_2
*I *1166:A I *D sky130_fd_sc_hd__clkbuf_16
*CAP
1 pll_clk 0.00151471
2 *392:DIODE 0
3 *1166:A 0.000101139
4 *7:16 0.00182734
5 *7:15 0.00324091
6 *7:15 *1020:B 0
7 *7:15 *1079:A0 1.63652e-05
8 *7:15 *1079:A1 0
9 *7:15 *1116:D 0.000132229
10 *7:15 *1160:SET_B 6.74667e-05
11 *7:15 *1160:CLK 0
12 *7:15 *1175:A 1.74019e-05
13 *7:15 *259:6 0
14 *7:15 *259:44 0
15 *7:15 *281:10 0
16 *7:15 *309:800 0
17 *7:15 *309:804 0
18 *7:16 *1163:CLK 7.40813e-05
19 *7:16 *232:32 0.00112263
20 *7:16 *263:27 0.000223747
21 *7:16 *309:313 3.44712e-06
22 *7:16 *309:318 1.14753e-05
*RES
1 pll_clk *7:15 41.2132 
2 *7:15 *7:16 29.0082 
3 *7:16 *1166:A 11.9257 
4 *7:16 *392:DIODE 9.24915 
*END

*D_NET *8 0.0100684
*CONN
*P pll_clk90 I
*I *391:DIODE I *D sky130_fd_sc_hd__diode_2
*I *1167:A I *D sky130_fd_sc_hd__clkbuf_16
*CAP
1 pll_clk90 0.00072442
2 *391:DIODE 0
3 *1167:A 0.000253489
4 *8:10 0.00266893
5 *8:7 0.00313986
6 *1167:A *1075:A0 6.78596e-05
7 *1167:A *1076:A0 0.000169728
8 *1167:A *260:29 0.000368568
9 *1167:A *260:40 6.50727e-05
10 *8:7 *1132:CLK 0
11 *8:7 *12:11 9.38662e-05
12 *8:7 *13:11 0.000110265
13 *8:7 *321:8 6.53429e-05
14 *8:10 *385:DIODE 0.000171273
15 *8:10 *895:A1 0.000523576
16 *8:10 *1027:A2_N 0.000153949
17 *8:10 *1131:D 0.000182064
18 *8:10 *260:13 0.00107374
19 *8:10 *260:29 3.93119e-05
20 *8:10 *260:175 0.000114584
21 *8:10 *281:49 1.92098e-05
22 *6:11 *8:7 6.33375e-05
*RES
1 pll_clk90 *8:7 23.8947 
2 *8:7 *8:10 41.3541 
3 *8:10 *1167:A 17.737 
4 *8:10 *391:DIODE 9.24915 
*END

*D_NET *9 0.00139105
*CONN
*P resetb I
*I *395:DIODE I *D sky130_fd_sc_hd__diode_2
*I *1179:A I *D sky130_fd_sc_hd__buf_12
*CAP
1 resetb 0.000486385
2 *395:DIODE 0
3 *1179:A 6.95301e-05
4 *9:5 0.000555915
5 *1179:A *936:A 0
6 *1179:A *938:A 6.50727e-05
7 *1179:A *938:B 6.92705e-05
8 *9:5 *936:A 0
9 *9:5 *939:A 8.13394e-05
10 *9:5 *939:C 6.35347e-05
11 *9:5 *940:A 0
*RES
1 resetb *9:5 12.7507 
2 *9:5 *1179:A 15.8893 
3 *9:5 *395:DIODE 13.7491 
*END

*D_NET *10 0.0013232
*CONN
*P resetb_sync O
*I *1187:X O *D sky130_fd_sc_hd__buf_2
*CAP
1 resetb_sync 0.000530311
2 *1187:X 0.000530311
3 resetb_sync *255:28 0.000162834
4 resetb_sync *288:21 6.78831e-05
5 resetb_sync *288:29 3.18656e-05
*RES
1 *1187:X resetb_sync 23.3578 
*END

*D_NET *11 0.000637917
*CONN
*P sel2[0] I
*I *1180:A I *D sky130_fd_sc_hd__clkbuf_1
*I *396:DIODE I *D sky130_fd_sc_hd__diode_2
*CAP
1 sel2[0] 0.0002352
2 *1180:A 0
3 *396:DIODE 8.37589e-05
4 *11:10 0.000318959
*RES
1 sel2[0] *11:10 8.999 
2 *11:10 *396:DIODE 11.0817 
3 *11:10 *1180:A 9.24915 
*END

*D_NET *12 0.000819029
*CONN
*P sel2[1] I
*I *1181:A I *D sky130_fd_sc_hd__clkbuf_1
*I *397:DIODE I *D sky130_fd_sc_hd__diode_2
*CAP
1 sel2[1] 0.000275387
2 *1181:A 0
3 *397:DIODE 7.21531e-05
4 *12:11 0.00034754
5 *397:DIODE *1128:D 3.00829e-05
6 *8:7 *12:11 9.38662e-05
*RES
1 sel2[1] *12:11 10.8917 
2 *12:11 *397:DIODE 11.0817 
3 *12:11 *1181:A 9.24915 
*END

*D_NET *13 0.000880133
*CONN
*P sel2[2] I
*I *1182:A I *D sky130_fd_sc_hd__clkbuf_1
*I *398:DIODE I *D sky130_fd_sc_hd__diode_2
*CAP
1 sel2[2] 0.000298504
2 *1182:A 0
3 *398:DIODE 8.64303e-05
4 *13:11 0.000384934
5 *8:7 *13:11 0.000110265
*RES
1 sel2[2] *13:11 11.3069 
2 *13:11 *398:DIODE 11.0817 
3 *13:11 *1182:A 9.24915 
*END

*D_NET *14 0.00144208
*CONN
*P sel[0] I
*I *399:DIODE I *D sky130_fd_sc_hd__diode_2
*I *1183:A I *D sky130_fd_sc_hd__clkbuf_1
*CAP
1 sel[0] 0.000498941
2 *399:DIODE 0.000121561
3 *1183:A 0
4 *14:8 0.000620502
5 *399:DIODE *994:B 9.75684e-05
6 *399:DIODE *234:17 0
7 *399:DIODE *305:12 9.98296e-05
8 *14:8 *994:B 3.67528e-06
9 *14:8 *994:C 0
10 *14:8 *1062:A 0
11 *14:8 *234:17 0
*RES
1 sel[0] *14:8 5.86493 
2 *14:8 *1183:A 13.7491 
3 *14:8 *399:DIODE 17.135 
*END

*D_NET *15 0.000762539
*CONN
*P sel[1] I
*I *1184:A I *D sky130_fd_sc_hd__clkbuf_1
*I *400:DIODE I *D sky130_fd_sc_hd__diode_2
*CAP
1 sel[1] 0.00027249
2 *1184:A 0
3 *400:DIODE 8.24262e-05
4 *15:10 0.000354916
5 *400:DIODE *1122:D 1.43698e-05
6 *15:10 *1062:A 3.83371e-05
*RES
1 sel[1] *15:10 10.2448 
2 *15:10 *400:DIODE 11.0817 
3 *15:10 *1184:A 9.24915 
*END

*D_NET *16 0.000874127
*CONN
*P sel[2] I
*I *1185:A I *D sky130_fd_sc_hd__clkbuf_1
*I *401:DIODE I *D sky130_fd_sc_hd__diode_2
*CAP
1 sel[2] 0.000329378
2 *1185:A 0
3 *401:DIODE 5.73017e-05
4 *16:10 0.00038668
5 *401:DIODE *1127:D 6.92705e-05
6 *401:DIODE *324:13 3.14978e-05
7 *16:10 *1127:CLK 0
8 *16:10 *324:13 0
*RES
1 sel[2] *16:10 11.4905 
2 *16:10 *401:DIODE 11.0817 
3 *16:10 *1185:A 9.24915 
*END

*D_NET *17 0.000380793
*CONN
*P user_clk O
*I *1188:X O *D sky130_fd_sc_hd__clkbuf_1
*CAP
1 user_clk 0.000158056
2 *1188:X 0.000158056
3 user_clk *309:739 6.46815e-05
*RES
1 *1188:X user_clk 17.2572 
*END

*D_NET *18 0.00646079
*CONN
*I *910:A2 I *D sky130_fd_sc_hd__a21bo_1
*I *912:A2 I *D sky130_fd_sc_hd__a21bo_1
*I *1067:A0 I *D sky130_fd_sc_hd__mux2_1
*I *900:B1 I *D sky130_fd_sc_hd__o21a_1
*I *914:A2 I *D sky130_fd_sc_hd__a21bo_1
*I *899:Y O *D sky130_fd_sc_hd__nand2_2
*CAP
1 *910:A2 4.83015e-05
2 *912:A2 2.17984e-05
3 *1067:A0 0.000457373
4 *900:B1 0
5 *914:A2 0
6 *899:Y 0.000203763
7 *18:42 0.000546358
8 *18:24 0.000722287
9 *18:19 0.000877465
10 *18:9 0.000340056
11 *910:A2 *912:A1 0.000205985
12 *910:A2 *1170:A 0.00033061
13 *912:A2 *912:A1 0.000165521
14 *912:A2 *1170:A 0.000165521
15 *1067:A0 *900:A2 1.63255e-05
16 *1067:A0 *1097:A0 0.000263116
17 *1067:A0 *1161:D 0.000107496
18 *1067:A0 *280:25 0.0002205
19 *1067:A0 *280:33 0.000137651
20 *1067:A0 *280:39 6.08467e-05
21 *18:9 *899:B 1.41976e-05
22 *18:9 *906:A 0.000184753
23 *18:9 *914:A1 6.51459e-05
24 *18:9 *914:B1_N 6.36477e-05
25 *18:19 *906:A 0.00025527
26 *18:19 *914:A1 5.46833e-05
27 *18:19 *146:7 2.57365e-05
28 *18:19 *309:630 0.000206696
29 *18:24 *1114:CLK 3.54581e-05
30 *18:24 *280:25 0.000295063
31 *18:42 *912:A1 0
32 *18:42 *1103:A0 6.55651e-05
33 *18:42 *1114:D 0
34 *18:42 *1114:CLK 0
35 *18:42 *1158:D 0
36 *18:42 *269:19 0
37 *18:42 *270:21 0.000269551
38 *18:42 *280:25 3.40476e-05
*RES
1 *899:Y *18:9 15.5668 
2 *18:9 *914:A2 9.24915 
3 *18:9 *18:19 5.35313 
4 *18:19 *18:24 16.2303 
5 *18:24 *900:B1 9.24915 
6 *18:24 *1067:A0 22.1979 
7 *18:19 *18:42 21.2483 
8 *18:42 *912:A2 11.0817 
9 *18:42 *910:A2 12.7456 
*END

*D_NET *19 0.0135672
*CONN
*I *998:B1 I *D sky130_fd_sc_hd__o21a_1
*I *963:A2 I *D sky130_fd_sc_hd__a21bo_1
*I *965:A2 I *D sky130_fd_sc_hd__a21bo_1
*I *1068:A0 I *D sky130_fd_sc_hd__mux2_2
*I *967:A2 I *D sky130_fd_sc_hd__a21bo_1
*I *961:Y O *D sky130_fd_sc_hd__nand2_2
*CAP
1 *998:B1 0.000253046
2 *963:A2 0
3 *965:A2 0.000330898
4 *1068:A0 6.96778e-05
5 *967:A2 5.08727e-05
6 *961:Y 0
7 *19:52 0.000805682
8 *19:40 0.000820222
9 *19:21 0.0011988
10 *19:4 0.000985858
11 *965:A2 *965:A1 0.000228593
12 *965:A2 *983:B1 3.1218e-05
13 *965:A2 *1146:D 0.000152185
14 *965:A2 *1146:CLK 0
15 *967:A2 *967:B1_N 3.60933e-06
16 *967:A2 *233:68 4.77858e-05
17 *967:A2 *244:33 0
18 *998:B1 *980:C 0.000119821
19 *998:B1 *984:A1 0.000583113
20 *998:B1 *984:A2 6.08467e-05
21 *998:B1 *48:25 0.00015661
22 *998:B1 *48:43 0.000308614
23 *998:B1 *233:44 0.0014936
24 *998:B1 *235:15 1.37189e-05
25 *1068:A0 *1068:S 6.92705e-05
26 *1068:A0 *254:77 0.000171273
27 *1068:A0 *254:81 0.000114523
28 *19:21 *984:A2 7.41833e-06
29 *19:21 *176:38 0
30 *19:21 *192:14 0.000873926
31 *19:21 *192:21 0.000303381
32 *19:21 *192:31 0.000179067
33 *19:21 *192:43 0.00016553
34 *19:21 *233:44 0.000160617
35 *19:21 *234:33 1.91391e-05
36 *19:21 *254:41 7.68279e-05
37 *19:21 *254:49 0.000362198
38 *19:21 *254:59 0.000572574
39 *19:40 *951:B 0
40 *19:40 *963:A1 0.000117376
41 *19:40 *963:B1_N 6.92705e-05
42 *19:40 *966:B 1.36815e-05
43 *19:40 *967:B1_N 1.3286e-05
44 *19:40 *1093:A1 6.50727e-05
45 *19:40 *1093:S 0.000368581
46 *19:40 *49:16 0
47 *19:40 *176:16 3.94335e-05
48 *19:40 *179:16 0
49 *19:40 *233:68 0.000121252
50 *19:40 *234:45 0.000910472
51 *19:40 *235:50 0.000179042
52 *19:40 *305:84 0.000118485
53 *19:52 *983:A2 0
54 *19:52 *983:B1 1.70077e-05
55 *19:52 *1041:A 5.17071e-05
56 *19:52 *1041:B 6.92705e-05
57 *19:52 *1042:B 0.000122083
58 *19:52 *1094:S 0
59 *19:52 *233:82 0
60 *19:52 *234:45 0.00016553
61 *19:52 *235:50 7.16893e-05
62 *19:52 *254:73 0.000215254
63 *19:52 *254:77 4.81834e-05
*RES
1 *961:Y *19:4 9.24915 
2 *19:4 *19:21 45.4145 
3 *19:21 *967:A2 14.7506 
4 *19:21 *19:40 23.2404 
5 *19:40 *19:52 20.9217 
6 *19:52 *1068:A0 12.191 
7 *19:52 *965:A2 27.7542 
8 *19:40 *963:A2 9.24915 
9 *19:4 *998:B1 27.2376 
*END

*D_NET *20 0.00515224
*CONN
*I *920:S I *D sky130_fd_sc_hd__mux2_1
*I *915:S I *D sky130_fd_sc_hd__mux2_1
*I *918:S I *D sky130_fd_sc_hd__mux2_1
*I *1067:X O *D sky130_fd_sc_hd__mux2_1
*CAP
1 *920:S 0.000270075
2 *915:S 0.000205431
3 *918:S 0.000307483
4 *1067:X 0
5 *20:7 0.00107033
6 *20:4 0.000827489
7 *915:S *915:A0 0.000110458
8 *915:S *915:A1 5.51483e-06
9 *915:S *1051:B 2.10465e-05
10 *915:S *1052:A 2.86829e-05
11 *915:S *1052:B 0.00013832
12 *915:S *154:9 5.04829e-06
13 *915:S *274:8 0.000114659
14 *915:S *309:10 3.87022e-06
15 *915:S *309:12 2.1896e-05
16 *918:S *1047:A 0.000208621
17 *918:S *1051:B 0.000127261
18 *918:S *1098:A0 0.000159038
19 *918:S *272:15 2.75725e-05
20 *918:S *309:12 1.22047e-05
21 *918:S *309:17 5.80222e-05
22 *920:S *920:A1 0.000262037
23 *920:S *1067:S 3.00174e-06
24 *920:S *259:94 3.7635e-06
25 *920:S *280:39 4.89251e-05
26 *20:7 *918:A1 6.3657e-05
27 *20:7 *1049:A1 6.27782e-05
28 *20:7 *1049:A2 6.50586e-05
29 *20:7 *1051:A 0.000203756
30 *20:7 *1098:A0 0.000135477
31 *20:7 *1098:A1 2.09463e-05
32 *20:7 *280:39 0.000559815
*RES