*SPEF "ieee 1481-1999"
*DESIGN "gpio_signal_buffering"
*DATE "11:11:11 Fri 11 11, 1111"
*VENDOR "OpenRCX"
*PROGRAM "Parallel Extraction"
*VERSION "1.0"
*DESIGN_FLOW "NAME_SCOPE LOCAL" "PIN_CAP NONE"
*DIVIDER /
*DELIMITER :
*BUS_DELIMITER []
*T_UNIT 1 NS
*C_UNIT 1 PF
*R_UNIT 1 OHM
*L_UNIT 1 HENRY

*NAME_MAP
*1 mgmt_io_in_unbuf[12]
*2 mgmt_io_in_unbuf[14]
*3 mgmt_io_in_unbuf[13]
*4 mgmt_io_in_unbuf[10]
*5 mgmt_io_in_unbuf[9]
*6 mgmt_io_in_unbuf[8]
*7 mgmt_io_in_unbuf[4]
*8 mgmt_io_in_unbuf[7]
*9 mgmt_io_in_unbuf[6]
*10 mgmt_io_in_unbuf[5]
*11 mgmt_io_in_unbuf[0]
*12 mgmt_io_in_unbuf[1]
*13 mgmt_io_in_unbuf[2]
*14 mgmt_io_in_unbuf[3]
*15 mgmt_io_out_buf[27]
*16 mgmt_io_out_buf[28]
*17 mgmt_io_out_buf[29]
*18 mgmt_io_out_buf[30]
*19 mgmt_io_out_buf[20]
*20 mgmt_io_out_buf[15]
*21 mgmt_io_out_buf[16]
*22 mgmt_io_out_buf[17]
*23 mgmt_io_out_buf[18]
*24 mgmt_io_out_buf[19]
*25 mgmt_io_out_buf[26]
*26 mgmt_io_out_buf[25]
*27 mgmt_io_out_buf[24]
*28 mgmt_io_out_buf[23]
*29 mgmt_io_out_buf[22]
*30 mgmt_io_out_buf[21]
*31 mgmt_io_out_unbuf[14]
*32 mgmt_io_in_buf[4]
*33 mgmt_io_in_buf[11]
*34 mgmt_io_in_buf[10]
*35 mgmt_io_in_buf[9]
*36 mgmt_io_in_buf[8]
*37 mgmt_io_in_buf[7]
*38 mgmt_io_in_buf[6]
*39 mgmt_io_in_buf[5]
*40 mgmt_io_in_buf[0]
*41 mgmt_io_in_buf[1]
*42 mgmt_io_in_buf[2]
*43 mgmt_io_in_buf[3]
*44 mgmt_io_out_unbuf[26]
*45 mgmt_io_out_unbuf[25]
*46 mgmt_io_out_unbuf[24]
*47 mgmt_io_out_unbuf[23]
*48 mgmt_io_out_unbuf[22]
*49 mgmt_io_out_unbuf[21]
*50 mgmt_io_out_unbuf[20]
*51 mgmt_io_out_unbuf[19]
*52 mgmt_io_out_unbuf[18]
*53 mgmt_io_out_unbuf[17]
*54 mgmt_io_out_unbuf[16]
*55 mgmt_io_out_unbuf[15]
*56 mgmt_io_out_unbuf[27]
*57 mgmt_io_out_unbuf[28]
*58 mgmt_io_out_unbuf[29]
*59 mgmt_io_out_unbuf[30]
*60 mgmt_io_oeb_unbuf[0]
*61 mgmt_io_oeb_unbuf[2]
*62 mgmt_io_oeb_unbuf[1]
*63 mgmt_io_out_unbuf[13]
*64 mgmt_io_out_unbuf[12]
*65 mgmt_io_out_buf[11]
*66 mgmt_io_in_buf[30]
*67 mgmt_io_in_buf[29]
*68 mgmt_io_in_buf[28]
*69 mgmt_io_in_buf[27]
*70 mgmt_io_in_buf[12]
*71 mgmt_io_in_buf[13]
*72 mgmt_io_in_buf[14]
*73 mgmt_io_in_buf[15]
*74 mgmt_io_in_buf[16]
*75 mgmt_io_in_buf[17]
*76 mgmt_io_in_buf[18]
*77 mgmt_io_in_buf[19]
*78 mgmt_io_in_buf[20]
*79 mgmt_io_in_buf[21]
*80 mgmt_io_in_buf[22]
*81 mgmt_io_in_buf[23]
*82 mgmt_io_in_buf[24]
*83 mgmt_io_in_buf[25]
*84 mgmt_io_in_buf[26]
*85 mgmt_io_out_unbuf[1]
*86 mgmt_io_out_unbuf[2]
*87 mgmt_io_out_unbuf[0]
*88 mgmt_io_out_unbuf[3]
*89 mgmt_io_out_unbuf[4]
*90 mgmt_io_out_unbuf[5]
*91 mgmt_io_out_unbuf[6]
*92 mgmt_io_out_unbuf[7]
*93 mgmt_io_out_unbuf[8]
*94 mgmt_io_out_unbuf[9]
*95 mgmt_io_out_unbuf[10]
*96 mgmt_io_out_unbuf[11]
*97 mgmt_io_out_buf[0]
*98 mgmt_io_out_buf[1]
*99 mgmt_io_out_buf[2]
*100 mgmt_io_out_buf[3]
*101 mgmt_io_out_buf[4]
*102 mgmt_io_out_buf[5]
*103 mgmt_io_out_buf[6]
*104 mgmt_io_out_buf[7]
*105 mgmt_io_out_buf[10]
*106 mgmt_io_out_buf[9]
*107 mgmt_io_out_buf[8]
*108 mgmt_io_in_unbuf[11]
*109 mgmt_io_out_buf[12]
*110 mgmt_io_out_buf[13]
*111 mgmt_io_out_buf[14]
*112 mgmt_io_in_unbuf[15]
*113 mgmt_io_in_unbuf[16]
*114 mgmt_io_in_unbuf[17]
*115 mgmt_io_in_unbuf[18]
*116 mgmt_io_in_unbuf[19]
*117 mgmt_io_in_unbuf[20]
*118 mgmt_io_in_unbuf[21]
*119 mgmt_io_in_unbuf[22]
*120 mgmt_io_in_unbuf[23]
*121 mgmt_io_in_unbuf[24]
*122 mgmt_io_in_unbuf[25]
*123 mgmt_io_in_unbuf[26]
*124 mgmt_io_oeb_buf[2]
*125 mgmt_io_oeb_buf[1]
*126 mgmt_io_oeb_buf[0]
*127 mgmt_io_in_unbuf[30]
*128 mgmt_io_in_unbuf[29]
*129 mgmt_io_in_unbuf[28]
*130 mgmt_io_in_unbuf[27]
*131 vccd
*132 vssd
*133 sky130_fd_sc_hd__buf_8_29/A
*134 sky130_fd_sc_hd__buf_8_28/X
*135 sky130_fd_sc_hd__buf_8_29/X
*136 sky130_fd_sc_hd__buf_8_40/A
*137 sky130_fd_sc_hd__buf_8_28/A
*138 sky130_fd_sc_hd__buf_8_41/X
*139 sky130_fd_sc_hd__buf_8_59/X
*140 sky130_fd_sc_hd__buf_8_59/A
*141 sky130_fd_sc_hd__buf_8_37/X
*142 sky130_fd_sc_hd__buf_8_27/A
*143 sky130_fd_sc_hd__buf_8_171/X
*144 sky130_fd_sc_hd__buf_8_69/X
*145 sky130_fd_sc_hd__buf_8_69/A
*146 sky130_fd_sc_hd__buf_8_58/X
*147 sky130_fd_sc_hd__buf_8_58/A
*148 sky130_fd_sc_hd__buf_8_36/A
*149 sky130_fd_sc_hd__buf_8_26/X
*150 sky130_fd_sc_hd__buf_8_170/A
*151 sky130_fd_sc_hd__buf_8_178/A
*152 sky130_fd_sc_hd__buf_8_183/X
*153 sky130_fd_sc_hd__buf_8_93/A
*154 sky130_fd_sc_hd__buf_8_79/A
*155 sky130_fd_sc_hd__buf_8_68/X
*156 sky130_fd_sc_hd__buf_8_68/A
*157 sky130_fd_sc_hd__buf_8_57/X
*158 sky130_fd_sc_hd__buf_8_57/A
*159 sky130_fd_sc_hd__buf_8_169/X
*160 sky130_fd_sc_hd__buf_8_179/X
*161 sky130_fd_sc_hd__buf_8_184/A
*162 sky130_fd_sc_hd__buf_8_78/X
*163 sky130_fd_sc_hd__buf_8_92/X
*164 sky130_fd_sc_hd__buf_8_67/X
*165 sky130_fd_sc_hd__buf_8_67/A
*166 sky130_fd_sc_hd__buf_8_56/X
*167 sky130_fd_sc_hd__buf_8_0/X
*168 sky130_fd_sc_hd__buf_8_33/A
*169 sky130_fd_sc_hd__buf_8_158/A
*170 sky130_fd_sc_hd__buf_8_168/A
*171 sky130_fd_sc_hd__buf_8_176/A
*172 sky130_fd_sc_hd__buf_8_77/X
*173 sky130_fd_sc_hd__buf_8_94/X
*174 sky130_fd_sc_hd__buf_8_66/X
*175 sky130_fd_sc_hd__buf_8_66/A
*176 sky130_fd_sc_hd__buf_8_55/A
*177 sky130_fd_sc_hd__buf_8_32/X
*178 sky130_fd_sc_hd__buf_8_33/X
*179 sky130_fd_sc_hd__buf_8_11/X
*180 sky130_fd_sc_hd__buf_8_159/X
*181 sky130_fd_sc_hd__buf_8_166/A
*182 sky130_fd_sc_hd__buf_8_177/X
*183 sky130_fd_sc_hd__buf_8_186/X
*184 sky130_fd_sc_hd__buf_8_39/X
*185 sky130_fd_sc_hd__buf_8_95/A
*186 sky130_fd_sc_hd__buf_8_76/A
*187 sky130_fd_sc_hd__buf_8_65/X
*188 sky130_fd_sc_hd__buf_8_65/A
*189 sky130_fd_sc_hd__buf_8_54/X
*190 sky130_fd_sc_hd__buf_8_54/A
*191 sky130_fd_sc_hd__buf_8_31/A
*192 sky130_fd_sc_hd__buf_8_32/A
*193 sky130_fd_sc_hd__buf_8_10/A
*194 sky130_fd_sc_hd__buf_8_165/X
*195 sky130_fd_sc_hd__buf_8_167/X
*196 sky130_fd_sc_hd__buf_8_185/A
*197 sky130_fd_sc_hd__buf_8_75/X
*198 sky130_fd_sc_hd__buf_8_98/X
*199 sky130_fd_sc_hd__buf_8_64/X
*200 sky130_fd_sc_hd__buf_8_64/A
*201 sky130_fd_sc_hd__buf_8_30/X
*202 sky130_fd_sc_hd__buf_8_31/X
*203 sky130_fd_sc_hd__buf_8_164/A
*204 sky130_fd_sc_hd__buf_8_175/X
*205 sky130_fd_sc_hd__buf_8_188/X
*206 sky130_fd_sc_hd__buf_8_85/X
*207 sky130_fd_sc_hd__buf_8_96/A
*208 sky130_fd_sc_hd__buf_8_74/A
*209 sky130_fd_sc_hd__buf_8_63/X
*210 sky130_fd_sc_hd__buf_8_63/A
*211 sky130_fd_sc_hd__buf_8_30/A
*212 sky130_fd_sc_hd__buf_8_41/A
*213 sky130_fd_sc_hd__buf_8_162/A
*214 sky130_fd_sc_hd__buf_8_174/A
*215 sky130_fd_sc_hd__buf_8_187/A
*216 sky130_fd_sc_hd__buf_8_84/A
*217 sky130_fd_sc_hd__buf_8_73/X
*218 sky130_fd_sc_hd__buf_8_99/X
*219 sky130_fd_sc_hd__buf_8_62/X
*220 sky130_fd_sc_hd__buf_8_62/A
*221 sky130_fd_sc_hd__buf_8_40/X
*222 sky130_fd_sc_hd__buf_8_163/X
*223 sky130_fd_sc_hd__buf_8_172/X
*224 sky130_fd_sc_hd__buf_8_189/X
*225 sky130_fd_sc_hd__buf_8_83/X
*226 sky130_fd_sc_hd__buf_8_88/X
*227 sky130_fd_sc_hd__buf_8_97/A
*228 sky130_fd_sc_hd__buf_8_72/A
*229 sky130_fd_sc_hd__buf_8_61/X
*230 sky130_fd_sc_hd__buf_8_61/A
*231 sky130_fd_sc_hd__buf_8_160/A
*232 sky130_fd_sc_hd__buf_8_173/A
*233 sky130_fd_sc_hd__buf_8_190/A
*234 sky130_fd_sc_hd__buf_8_43/A
*235 sky130_fd_sc_hd__buf_8_89/A
*236 sky130_fd_sc_hd__buf_8_82/A
*237 sky130_fd_sc_hd__buf_8_71/X
*238 sky130_fd_sc_hd__buf_8_71/A
*239 sky130_fd_sc_hd__buf_8_60/X
*240 sky130_fd_sc_hd__buf_8_60/A
*241 sky130_fd_sc_hd__buf_8_0/A
*242 sky130_ef_sc_hd__decap_12_21
*243 sky130_ef_sc_hd__decap_12_24
*244 sky130_fd_sc_hd__buf_8_1
*245 sky130_fd_sc_hd__tapvpwrvgnd_1_3
*246 sky130_fd_sc_hd__tapvpwrvgnd_1_238
*247 sky130_fd_sc_hd__tapvpwrvgnd_1_241
*248 sky130_fd_sc_hd__buf_8_82
*249 sky130_fd_sc_hd__buf_8_83
*250 sky130_fd_sc_hd__tapvpwrvgnd_1_92
*251 sky130_fd_sc_hd__tapvpwrvgnd_1_93
*252 sky130_fd_sc_hd__buf_8_80
*253 sky130_fd_sc_hd__buf_8_81
*254 sky130_fd_sc_hd__tapvpwrvgnd_1_90
*255 sky130_fd_sc_hd__tapvpwrvgnd_1_91
*256 sky130_ef_sc_hd__decap_12_23
*257 sky130_fd_sc_hd__tapvpwrvgnd_1_240
*258 sky130_ef_sc_hd__decap_12_26
*259 sky130_fd_sc_hd__tapvpwrvgnd_1_242
*260 sky130_fd_sc_hd__buf_8_78
*261 sky130_fd_sc_hd__buf_8_79
*262 sky130_fd_sc_hd__tapvpwrvgnd_1_88
*263 sky130_fd_sc_hd__tapvpwrvgnd_1_89
*264 sky130_fd_sc_hd__buf_8_76
*265 sky130_fd_sc_hd__buf_8_77
*266 sky130_fd_sc_hd__tapvpwrvgnd_1_86
*267 sky130_fd_sc_hd__tapvpwrvgnd_1_87
*268 sky130_ef_sc_hd__decap_12_25
*269 sky130_fd_sc_hd__tapvpwrvgnd_1_243
*270 sky130_ef_sc_hd__decap_12_27
*271 sky130_fd_sc_hd__tapvpwrvgnd_1_244
*272 sky130_fd_sc_hd__buf_8_74
*273 sky130_fd_sc_hd__buf_8_75
*274 sky130_fd_sc_hd__tapvpwrvgnd_1_84
*275 sky130_fd_sc_hd__tapvpwrvgnd_1_85
*276 sky130_fd_sc_hd__buf_8_72
*277 sky130_fd_sc_hd__buf_8_73
*278 sky130_fd_sc_hd__tapvpwrvgnd_1_82
*279 sky130_fd_sc_hd__tapvpwrvgnd_1_83
*280 sky130_fd_sc_hd__buf_8_70
*281 sky130_fd_sc_hd__buf_8_71
*282 sky130_fd_sc_hd__tapvpwrvgnd_1_80
*283 sky130_fd_sc_hd__tapvpwrvgnd_1_81
*284 sky130_ef_sc_hd__decap_12_29
*285 sky130_fd_sc_hd__tapvpwrvgnd_1_246
*286 sky130_ef_sc_hd__decap_12_28
*287 sky130_fd_sc_hd__tapvpwrvgnd_1_245
*288 sky130_ef_sc_hd__decap_12_30
*289 sky130_fd_sc_hd__tapvpwrvgnd_1_247
*290 sky130_fd_sc_hd__buf_8_68
*291 sky130_fd_sc_hd__buf_8_69
*292 sky130_fd_sc_hd__tapvpwrvgnd_1_78
*293 sky130_fd_sc_hd__tapvpwrvgnd_1_79
*294 sky130_fd_sc_hd__buf_8_66
*295 sky130_fd_sc_hd__buf_8_67
*296 sky130_fd_sc_hd__tapvpwrvgnd_1_76
*297 sky130_fd_sc_hd__tapvpwrvgnd_1_77
*298 sky130_ef_sc_hd__decap_12_32
*299 sky130_fd_sc_hd__tapvpwrvgnd_1_249
*300 sky130_ef_sc_hd__decap_12_31
*301 sky130_fd_sc_hd__tapvpwrvgnd_1_248
*302 sky130_fd_sc_hd__buf_8_64
*303 sky130_fd_sc_hd__buf_8_65
*304 sky130_fd_sc_hd__tapvpwrvgnd_1_74
*305 sky130_fd_sc_hd__tapvpwrvgnd_1_75
*306 sky130_fd_sc_hd__buf_8_62
*307 sky130_fd_sc_hd__buf_8_63
*308 sky130_fd_sc_hd__tapvpwrvgnd_1_72
*309 sky130_fd_sc_hd__tapvpwrvgnd_1_73
*310 sky130_ef_sc_hd__decap_12_34
*311 sky130_fd_sc_hd__tapvpwrvgnd_1_250
*312 sky130_ef_sc_hd__decap_12_33
*313 sky130_fd_sc_hd__tapvpwrvgnd_1_251
*314 sky130_fd_sc_hd__buf_8_60
*315 sky130_fd_sc_hd__buf_8_61
*316 sky130_fd_sc_hd__tapvpwrvgnd_1_70
*317 sky130_fd_sc_hd__tapvpwrvgnd_1_71
*318 sky130_fd_sc_hd__buf_8_58
*319 sky130_fd_sc_hd__buf_8_59
*320 sky130_fd_sc_hd__tapvpwrvgnd_1_68
*321 sky130_fd_sc_hd__tapvpwrvgnd_1_69
*322 sky130_fd_sc_hd__buf_8_56
*323 sky130_fd_sc_hd__buf_8_57
*324 sky130_fd_sc_hd__tapvpwrvgnd_1_66
*325 sky130_fd_sc_hd__tapvpwrvgnd_1_67
*326 sky130_ef_sc_hd__decap_12_36
*327 sky130_fd_sc_hd__tapvpwrvgnd_1_253
*328 sky130_ef_sc_hd__decap_12_35
*329 sky130_fd_sc_hd__tapvpwrvgnd_1_252
*330 sky130_ef_sc_hd__decap_12_37
*331 sky130_fd_sc_hd__tapvpwrvgnd_1_254
*332 sky130_fd_sc_hd__buf_8_54
*333 sky130_fd_sc_hd__buf_8_55
*334 sky130_fd_sc_hd__tapvpwrvgnd_1_64
*335 sky130_fd_sc_hd__tapvpwrvgnd_1_65
*336 sky130_fd_sc_hd__buf_8_2
*337 sky130_fd_sc_hd__buf_8_3
*338 sky130_fd_sc_hd__tapvpwrvgnd_1_6
*339 sky130_fd_sc_hd__tapvpwrvgnd_1_7
*340 sky130_ef_sc_hd__decap_12_39
*341 sky130_fd_sc_hd__tapvpwrvgnd_1_256
*342 sky130_ef_sc_hd__decap_12_40
*343 sky130_fd_sc_hd__tapvpwrvgnd_1_257
*344 sky130_fd_sc_hd__buf_8_84
*345 sky130_fd_sc_hd__buf_8_85
*346 sky130_fd_sc_hd__tapvpwrvgnd_1_94
*347 sky130_fd_sc_hd__tapvpwrvgnd_1_95
*348 sky130_fd_sc_hd__buf_8_4
*349 sky130_fd_sc_hd__buf_8_5
*350 sky130_fd_sc_hd__tapvpwrvgnd_1_4
*351 sky130_fd_sc_hd__tapvpwrvgnd_1_5
*352 sky130_fd_sc_hd__tapvpwrvgnd_1_8
*353 sky130_fd_sc_hd__tapvpwrvgnd_1_9
*354 sky130_ef_sc_hd__decap_12_38
*355 sky130_fd_sc_hd__tapvpwrvgnd_1_255
*356 sky130_ef_sc_hd__decap_12_42
*357 sky130_fd_sc_hd__tapvpwrvgnd_1_259
*358 sky130_fd_sc_hd__tapvpwrvgnd_1_258
*359 sky130_fd_sc_hd__buf_8_6
*360 sky130_fd_sc_hd__buf_8_7
*361 sky130_fd_sc_hd__tapvpwrvgnd_1_10
*362 sky130_fd_sc_hd__tapvpwrvgnd_1_11
*363 sky130_fd_sc_hd__buf_8_8
*364 sky130_fd_sc_hd__buf_8_9
*365 sky130_fd_sc_hd__tapvpwrvgnd_1_12
*366 sky130_fd_sc_hd__tapvpwrvgnd_1_13
*367 sky130_ef_sc_hd__decap_12_41
*368 sky130_fd_sc_hd__tapvpwrvgnd_1_260
*369 sky130_ef_sc_hd__decap_12_43
*370 sky130_fd_sc_hd__tapvpwrvgnd_1_326
*371 sky130_ef_sc_hd__decap_12_1
*372 sky130_fd_sc_hd__buf_8_86
*373 sky130_fd_sc_hd__tapvpwrvgnd_1_96
*374 sky130_fd_sc_hd__tapvpwrvgnd_1_97
*375 sky130_fd_sc_hd__buf_8_88
*376 sky130_fd_sc_hd__buf_8_89
*377 sky130_fd_sc_hd__tapvpwrvgnd_1_98
*378 sky130_fd_sc_hd__tapvpwrvgnd_1_99
*379 sky130_ef_sc_hd__decap_12_22
*380 sky130_fd_sc_hd__tapvpwrvgnd_1_239
*381 sky130_ef_sc_hd__decap_12_2
*382 sky130_fd_sc_hd__tapvpwrvgnd_1_218
*383 sky130_fd_sc_hd__buf_8_90
*384 sky130_fd_sc_hd__buf_8_91
*385 sky130_fd_sc_hd__tapvpwrvgnd_1_100
*386 sky130_fd_sc_hd__tapvpwrvgnd_1_101
*387 sky130_fd_sc_hd__buf_8_92
*388 sky130_fd_sc_hd__buf_8_93
*389 sky130_fd_sc_hd__tapvpwrvgnd_1_104
*390 sky130_fd_sc_hd__tapvpwrvgnd_1_105
*391 sky130_fd_sc_hd__buf_8_94
*392 sky130_fd_sc_hd__buf_8_95
*393 sky130_fd_sc_hd__tapvpwrvgnd_1_102
*394 sky130_fd_sc_hd__tapvpwrvgnd_1_103
*395 sky130_ef_sc_hd__decap_12_3
*396 sky130_fd_sc_hd__tapvpwrvgnd_1_219
*397 sky130_ef_sc_hd__decap_12_4
*398 sky130_fd_sc_hd__tapvpwrvgnd_1_220
*399 sky130_ef_sc_hd__decap_12_0
*400 sky130_fd_sc_hd__tapvpwrvgnd_1_2
*401 sky130_fd_sc_hd__buf_8_96
*402 sky130_fd_sc_hd__buf_8_98
*403 sky130_fd_sc_hd__tapvpwrvgnd_1_106
*404 sky130_fd_sc_hd__tapvpwrvgnd_1_109
*405 sky130_fd_sc_hd__buf_8_97
*406 sky130_fd_sc_hd__buf_8_99
*407 sky130_fd_sc_hd__tapvpwrvgnd_1_107
*408 sky130_fd_sc_hd__tapvpwrvgnd_1_110
*409 sky130_fd_sc_hd__buf_8_100
*410 sky130_fd_sc_hd__buf_8_103
*411 sky130_fd_sc_hd__tapvpwrvgnd_1_108
*412 sky130_fd_sc_hd__tapvpwrvgnd_1_111
*413 sky130_ef_sc_hd__decap_12_6
*414 sky130_fd_sc_hd__tapvpwrvgnd_1_222
*415 sky130_ef_sc_hd__decap_12_7
*416 sky130_fd_sc_hd__tapvpwrvgnd_1_223
*417 sky130_ef_sc_hd__decap_12_8
*418 sky130_fd_sc_hd__tapvpwrvgnd_1_224
*419 sky130_fd_sc_hd__buf_8_101
*420 sky130_fd_sc_hd__buf_8_104
*421 sky130_fd_sc_hd__tapvpwrvgnd_1_112
*422 sky130_fd_sc_hd__tapvpwrvgnd_1_114
*423 sky130_fd_sc_hd__buf_8_102
*424 sky130_fd_sc_hd__buf_8_105
*425 sky130_fd_sc_hd__tapvpwrvgnd_1_113
*426 sky130_fd_sc_hd__tapvpwrvgnd_1_115
*427 sky130_fd_sc_hd__buf_8_106
*428 sky130_fd_sc_hd__buf_8_107
*429 sky130_fd_sc_hd__tapvpwrvgnd_1_116
*430 sky130_fd_sc_hd__tapvpwrvgnd_1_117
*431 sky130_ef_sc_hd__decap_12_9
*432 sky130_fd_sc_hd__tapvpwrvgnd_1_225
*433 sky130_ef_sc_hd__decap_12_10
*434 sky130_fd_sc_hd__tapvpwrvgnd_1_226
*435 sky130_ef_sc_hd__decap_12_5
*436 sky130_fd_sc_hd__tapvpwrvgnd_1_221
*437 sky130_fd_sc_hd__buf_8_108
*438 sky130_fd_sc_hd__buf_8_109
*439 sky130_fd_sc_hd__tapvpwrvgnd_1_118
*440 sky130_fd_sc_hd__tapvpwrvgnd_1_119
*441 sky130_fd_sc_hd__buf_8_110
*442 sky130_fd_sc_hd__buf_8_111
*443 sky130_fd_sc_hd__tapvpwrvgnd_1_120
*444 sky130_fd_sc_hd__tapvpwrvgnd_1_121
*445 sky130_ef_sc_hd__decap_12_11
*446 sky130_fd_sc_hd__tapvpwrvgnd_1_227
*447 sky130_ef_sc_hd__decap_12_13
*448 sky130_fd_sc_hd__tapvpwrvgnd_1_229
*449 sky130_fd_sc_hd__buf_8_112
*450 sky130_fd_sc_hd__buf_8_113
*451 sky130_fd_sc_hd__tapvpwrvgnd_1_122
*452 sky130_fd_sc_hd__tapvpwrvgnd_1_123
*453 sky130_fd_sc_hd__buf_8_114
*454 sky130_fd_sc_hd__buf_8_115
*455 sky130_fd_sc_hd__tapvpwrvgnd_1_124
*456 sky130_fd_sc_hd__tapvpwrvgnd_1_125
*457 sky130_ef_sc_hd__decap_12_12
*458 sky130_fd_sc_hd__tapvpwrvgnd_1_228
*459 sky130_ef_sc_hd__decap_12_14
*460 sky130_fd_sc_hd__tapvpwrvgnd_1_230
*461 sky130_ef_sc_hd__decap_12_15
*462 sky130_fd_sc_hd__buf_8_116
*463 sky130_fd_sc_hd__buf_8_117
*464 sky130_fd_sc_hd__tapvpwrvgnd_1_126
*465 sky130_fd_sc_hd__tapvpwrvgnd_1_127
*466 sky130_fd_sc_hd__tapvpwrvgnd_1_231
*467 sky130_ef_sc_hd__decap_12_16
*468 sky130_fd_sc_hd__buf_8_118
*469 sky130_fd_sc_hd__buf_8_119
*470 sky130_fd_sc_hd__tapvpwrvgnd_1_128
*471 sky130_fd_sc_hd__tapvpwrvgnd_1_129
*472 sky130_fd_sc_hd__tapvpwrvgnd_1_232
*473 sky130_ef_sc_hd__decap_12_18
*474 sky130_fd_sc_hd__buf_8_120
*475 sky130_fd_sc_hd__buf_8_121
*476 sky130_fd_sc_hd__tapvpwrvgnd_1_130
*477 sky130_fd_sc_hd__tapvpwrvgnd_1_131
*478 sky130_fd_sc_hd__tapvpwrvgnd_1_234
*479 sky130_ef_sc_hd__decap_12_17
*480 sky130_fd_sc_hd__buf_8_122
*481 sky130_fd_sc_hd__buf_8_123
*482 sky130_fd_sc_hd__tapvpwrvgnd_1_132
*483 sky130_fd_sc_hd__tapvpwrvgnd_1_133
*484 sky130_fd_sc_hd__tapvpwrvgnd_1_233
*485 sky130_ef_sc_hd__decap_12_19
*486 sky130_fd_sc_hd__buf_8_124
*487 sky130_fd_sc_hd__buf_8_126
*488 sky130_fd_sc_hd__tapvpwrvgnd_1_134
*489 sky130_fd_sc_hd__tapvpwrvgnd_1_137
*490 sky130_fd_sc_hd__tapvpwrvgnd_1_236
*491 sky130_ef_sc_hd__decap_12_20
*492 sky130_fd_sc_hd__buf_8_125
*493 sky130_fd_sc_hd__buf_8_127
*494 sky130_fd_sc_hd__tapvpwrvgnd_1_135
*495 sky130_fd_sc_hd__tapvpwrvgnd_1_138
*496 sky130_fd_sc_hd__tapvpwrvgnd_1_235
*497 sky130_fd_sc_hd__tapvpwrvgnd_1_136
*498 sky130_fd_sc_hd__tapvpwrvgnd_1_139
*499 sky130_fd_sc_hd__tapvpwrvgnd_1_237
*500 sky130_fd_sc_hd__buf_8_128
*501 sky130_fd_sc_hd__buf_8_129
*502 sky130_fd_sc_hd__tapvpwrvgnd_1_140
*503 sky130_fd_sc_hd__tapvpwrvgnd_1_309
*504 sky130_ef_sc_hd__decap_12_57
*505 sky130_fd_sc_hd__tapvpwrvgnd_1_141
*506 sky130_fd_sc_hd__buf_8_130
*507 sky130_fd_sc_hd__buf_8_131
*508 sky130_fd_sc_hd__tapvpwrvgnd_1_142
*509 sky130_fd_sc_hd__tapvpwrvgnd_1_143
*510 sky130_ef_sc_hd__decap_12_56
*511 sky130_fd_sc_hd__tapvpwrvgnd_1_310
*512 sky130_fd_sc_hd__buf_8_132
*513 sky130_fd_sc_hd__buf_8_133
*514 sky130_fd_sc_hd__tapvpwrvgnd_1_144
*515 sky130_fd_sc_hd__tapvpwrvgnd_1_145
*516 sky130_ef_sc_hd__decap_12_44
*517 sky130_fd_sc_hd__tapvpwrvgnd_1_312
*518 sky130_fd_sc_hd__buf_8_138
*519 sky130_fd_sc_hd__buf_8_139
*520 sky130_fd_sc_hd__tapvpwrvgnd_1_150
*521 sky130_fd_sc_hd__tapvpwrvgnd_1_151
*522 sky130_ef_sc_hd__decap_12_46
*523 sky130_fd_sc_hd__tapvpwrvgnd_1_311
*524 sky130_fd_sc_hd__buf_8_136
*525 sky130_fd_sc_hd__buf_8_137
*526 sky130_fd_sc_hd__tapvpwrvgnd_1_148
*527 sky130_fd_sc_hd__tapvpwrvgnd_1_149
*528 sky130_ef_sc_hd__decap_12_45
*529 sky130_fd_sc_hd__tapvpwrvgnd_1_313
*530 sky130_fd_sc_hd__buf_8_134
*531 sky130_fd_sc_hd__buf_8_135
*532 sky130_fd_sc_hd__tapvpwrvgnd_1_146
*533 sky130_fd_sc_hd__tapvpwrvgnd_1_147
*534 sky130_ef_sc_hd__decap_12_47
*535 sky130_fd_sc_hd__tapvpwrvgnd_1_314
*536 sky130_fd_sc_hd__buf_8_142
*537 sky130_fd_sc_hd__buf_8_143
*538 sky130_fd_sc_hd__tapvpwrvgnd_1_154
*539 sky130_fd_sc_hd__tapvpwrvgnd_1_155
*540 sky130_ef_sc_hd__decap_12_49
*541 sky130_fd_sc_hd__tapvpwrvgnd_1_316
*542 sky130_fd_sc_hd__buf_8_140
*543 sky130_fd_sc_hd__buf_8_141
*544 sky130_fd_sc_hd__tapvpwrvgnd_1_152
*545 sky130_fd_sc_hd__tapvpwrvgnd_1_153
*546 sky130_ef_sc_hd__decap_12_48
*547 sky130_fd_sc_hd__tapvpwrvgnd_1_315
*548 sky130_fd_sc_hd__buf_8_148
*549 sky130_fd_sc_hd__buf_8_149
*550 sky130_fd_sc_hd__tapvpwrvgnd_1_160
*551 sky130_fd_sc_hd__tapvpwrvgnd_1_161
*552 sky130_ef_sc_hd__decap_12_50
*553 sky130_fd_sc_hd__tapvpwrvgnd_1_317
*554 sky130_fd_sc_hd__buf_8_146
*555 sky130_fd_sc_hd__buf_8_147
*556 sky130_fd_sc_hd__tapvpwrvgnd_1_158
*557 sky130_fd_sc_hd__tapvpwrvgnd_1_159
*558 sky130_ef_sc_hd__decap_12_51
*559 sky130_fd_sc_hd__tapvpwrvgnd_1_318
*560 sky130_fd_sc_hd__buf_8_144
*561 sky130_fd_sc_hd__buf_8_145
*562 sky130_fd_sc_hd__tapvpwrvgnd_1_156
*563 sky130_fd_sc_hd__tapvpwrvgnd_1_157
*564 sky130_ef_sc_hd__decap_12_53
*565 sky130_fd_sc_hd__tapvpwrvgnd_1_320
*566 sky130_fd_sc_hd__buf_8_154
*567 sky130_fd_sc_hd__buf_8_155
*568 sky130_fd_sc_hd__tapvpwrvgnd_1_166
*569 sky130_fd_sc_hd__tapvpwrvgnd_1_167
*570 sky130_ef_sc_hd__decap_12_52
*571 sky130_fd_sc_hd__tapvpwrvgnd_1_319
*572 sky130_fd_sc_hd__buf_8_152
*573 sky130_fd_sc_hd__buf_8_153
*574 sky130_fd_sc_hd__tapvpwrvgnd_1_164
*575 sky130_fd_sc_hd__tapvpwrvgnd_1_165
*576 sky130_ef_sc_hd__decap_12_100
*577 sky130_fd_sc_hd__tapvpwrvgnd_1_162
*578 sky130_fd_sc_hd__buf_8_0
*579 sky130_fd_sc_hd__buf_8_151
*580 sky130_fd_sc_hd__tapvpwrvgnd_1_163
*581 sky130_fd_sc_hd__tapvpwrvgnd_1_323
*582 sky130_ef_sc_hd__decap_12_54
*583 sky130_fd_sc_hd__tapvpwrvgnd_1_321
*584 sky130_fd_sc_hd__buf_8_156
*585 sky130_fd_sc_hd__buf_8_157
*586 sky130_fd_sc_hd__tapvpwrvgnd_1_170
*587 sky130_fd_sc_hd__tapvpwrvgnd_1_171
*588 sky130_ef_sc_hd__decap_12_55
*589 sky130_fd_sc_hd__tapvpwrvgnd_1_322
*590 sky130_fd_sc_hd__tapvpwrvgnd_1_168
*591 sky130_fd_sc_hd__tapvpwrvgnd_1_169
*592 sky130_fd_sc_hd__tapvpwrvgnd_1_324
*593 sky130_ef_sc_hd__decap_12_98
*594 sky130_fd_sc_hd__buf_8_12
*595 sky130_fd_sc_hd__buf_8_13
*596 sky130_fd_sc_hd__tapvpwrvgnd_1_53
*597 sky130_fd_sc_hd__tapvpwrvgnd_1_261
*598 sky130_fd_sc_hd__tapvpwrvgnd_1_262
*599 sky130_ef_sc_hd__decap_12_99
*600 sky130_fd_sc_hd__tapvpwrvgnd_1_52
*601 sky130_fd_sc_hd__buf_8_46
*602 sky130_fd_sc_hd__tapvpwrvgnd_1_55
*603 sky130_fd_sc_hd__buf_8_47
*604 sky130_fd_sc_hd__tapvpwrvgnd_1_54
*605 sky130_ef_sc_hd__decap_12_96
*606 sky130_fd_sc_hd__tapvpwrvgnd_1_264
*607 sky130_fd_sc_hd__buf_8_49
*608 sky130_fd_sc_hd__tapvpwrvgnd_1_57
*609 sky130_fd_sc_hd__buf_8_48
*610 sky130_fd_sc_hd__tapvpwrvgnd_1_56
*611 sky130_ef_sc_hd__decap_12_97
*612 sky130_fd_sc_hd__tapvpwrvgnd_1_263
*613 sky130_fd_sc_hd__buf_8_51
*614 sky130_fd_sc_hd__tapvpwrvgnd_1_59
*615 sky130_fd_sc_hd__buf_8_50
*616 sky130_fd_sc_hd__tapvpwrvgnd_1_58
*617 sky130_fd_sc_hd__tapvpwrvgnd_1_265
*618 sky130_fd_sc_hd__tapvpwrvgnd_1_61
*619 sky130_fd_sc_hd__tapvpwrvgnd_1_60
*620 sky130_ef_sc_hd__decap_12_95
*621 sky130_fd_sc_hd__tapvpwrvgnd_1_267
*622 sky130_fd_sc_hd__buf_8_53
*623 sky130_fd_sc_hd__tapvpwrvgnd_1_63
*624 sky130_fd_sc_hd__buf_8_52
*625 sky130_fd_sc_hd__tapvpwrvgnd_1_62
*626 sky130_ef_sc_hd__decap_12_93
*627 sky130_fd_sc_hd__tapvpwrvgnd_1_266
*628 sky130_fd_sc_hd__buf_8_34
*629 sky130_fd_sc_hd__tapvpwrvgnd_1_38
*630 sky130_fd_sc_hd__buf_8_35
*631 sky130_fd_sc_hd__tapvpwrvgnd_1_39
*632 sky130_ef_sc_hd__decap_12_94
*633 sky130_fd_sc_hd__tapvpwrvgnd_1_269
*634 sky130_fd_sc_hd__buf_8_36
*635 sky130_fd_sc_hd__tapvpwrvgnd_1_16
*636 sky130_fd_sc_hd__buf_8_37
*637 sky130_fd_sc_hd__tapvpwrvgnd_1_17
*638 sky130_ef_sc_hd__decap_12_91
*639 sky130_fd_sc_hd__buf_8_14
*640 sky130_fd_sc_hd__buf_8_15
*641 sky130_ef_sc_hd__decap_12_92
*642 sky130_fd_sc_hd__buf_8_18
*643 sky130_fd_sc_hd__buf_8_19
*644 sky130_fd_sc_hd__tapvpwrvgnd_1_20
*645 sky130_fd_sc_hd__tapvpwrvgnd_1_21
*646 sky130_fd_sc_hd__tapvpwrvgnd_1_268
*647 sky130_ef_sc_hd__decap_12_89
*648 sky130_fd_sc_hd__buf_8_20
*649 sky130_fd_sc_hd__buf_8_21
*650 sky130_fd_sc_hd__tapvpwrvgnd_1_22
*651 sky130_fd_sc_hd__tapvpwrvgnd_1_23
*652 sky130_fd_sc_hd__tapvpwrvgnd_1_271
*653 sky130_ef_sc_hd__decap_12_90
*654 sky130_fd_sc_hd__buf_8_16
*655 sky130_fd_sc_hd__buf_8_17
*656 sky130_fd_sc_hd__tapvpwrvgnd_1_18
*657 sky130_fd_sc_hd__tapvpwrvgnd_1_19
*658 sky130_fd_sc_hd__tapvpwrvgnd_1_270
*659 sky130_ef_sc_hd__decap_12_88
*660 sky130_fd_sc_hd__buf_8_22
*661 sky130_fd_sc_hd__buf_8_23
*662 sky130_fd_sc_hd__tapvpwrvgnd_1_24
*663 sky130_fd_sc_hd__tapvpwrvgnd_1_25
*664 sky130_fd_sc_hd__tapvpwrvgnd_1_325
*665 sky130_fd_sc_hd__tapvpwrvgnd_1_26
*666 sky130_fd_sc_hd__tapvpwrvgnd_1_27
*667 sky130_fd_sc_hd__tapvpwrvgnd_1_273
*668 sky130_ef_sc_hd__decap_12_68
*669 sky130_fd_sc_hd__buf_8_178
*670 sky130_fd_sc_hd__buf_8_179
*671 sky130_fd_sc_hd__tapvpwrvgnd_1_194
*672 sky130_fd_sc_hd__tapvpwrvgnd_1_195
*673 sky130_fd_sc_hd__tapvpwrvgnd_1_297
*674 sky130_ef_sc_hd__decap_12_67
*675 sky130_fd_sc_hd__buf_8_176
*676 sky130_fd_sc_hd__buf_8_177
*677 sky130_fd_sc_hd__tapvpwrvgnd_1_190
*678 sky130_fd_sc_hd__tapvpwrvgnd_1_192
*679 sky130_fd_sc_hd__tapvpwrvgnd_1_299
*680 sky130_ef_sc_hd__decap_12_65
*681 sky130_fd_sc_hd__buf_8_174
*682 sky130_fd_sc_hd__buf_8_175
*683 sky130_fd_sc_hd__tapvpwrvgnd_1_191
*684 sky130_fd_sc_hd__tapvpwrvgnd_1_193
*685 sky130_fd_sc_hd__tapvpwrvgnd_1_298
*686 sky130_ef_sc_hd__decap_12_66
*687 sky130_fd_sc_hd__buf_8_172
*688 sky130_fd_sc_hd__buf_8_173
*689 sky130_fd_sc_hd__tapvpwrvgnd_1_188
*690 sky130_fd_sc_hd__tapvpwrvgnd_1_189
*691 sky130_fd_sc_hd__tapvpwrvgnd_1_300
*692 sky130_ef_sc_hd__decap_12_63
*693 sky130_fd_sc_hd__buf_8_170
*694 sky130_fd_sc_hd__buf_8_171
*695 sky130_fd_sc_hd__tapvpwrvgnd_1_186
*696 sky130_fd_sc_hd__tapvpwrvgnd_1_187
*697 sky130_fd_sc_hd__tapvpwrvgnd_1_302
*698 sky130_ef_sc_hd__decap_12_64
*699 sky130_fd_sc_hd__buf_8_168
*700 sky130_fd_sc_hd__buf_8_169
*701 sky130_fd_sc_hd__tapvpwrvgnd_1_184
*702 sky130_fd_sc_hd__tapvpwrvgnd_1_185
*703 sky130_fd_sc_hd__tapvpwrvgnd_1_301
*704 sky130_ef_sc_hd__decap_12_61
*705 sky130_fd_sc_hd__buf_8_166
*706 sky130_fd_sc_hd__buf_8_167
*707 sky130_fd_sc_hd__tapvpwrvgnd_1_182
*708 sky130_fd_sc_hd__tapvpwrvgnd_1_183
*709 sky130_fd_sc_hd__tapvpwrvgnd_1_304
*710 sky130_ef_sc_hd__decap_12_62
*711 sky130_fd_sc_hd__buf_8_164
*712 sky130_fd_sc_hd__buf_8_165
*713 sky130_fd_sc_hd__tapvpwrvgnd_1_180
*714 sky130_fd_sc_hd__tapvpwrvgnd_1_181
*715 sky130_fd_sc_hd__tapvpwrvgnd_1_303
*716 sky130_ef_sc_hd__decap_12_59
*717 sky130_fd_sc_hd__buf_8_162
*718 sky130_fd_sc_hd__buf_8_163
*719 sky130_fd_sc_hd__tapvpwrvgnd_1_178
*720 sky130_fd_sc_hd__tapvpwrvgnd_1_179
*721 sky130_fd_sc_hd__tapvpwrvgnd_1_306
*722 sky130_ef_sc_hd__decap_12_60
*723 sky130_fd_sc_hd__buf_8_160
*724 sky130_fd_sc_hd__buf_8_161
*725 sky130_fd_sc_hd__tapvpwrvgnd_1_176
*726 sky130_fd_sc_hd__tapvpwrvgnd_1_177
*727 sky130_fd_sc_hd__tapvpwrvgnd_1_305
*728 sky130_ef_sc_hd__decap_12_58
*729 sky130_fd_sc_hd__buf_8_158
*730 sky130_fd_sc_hd__buf_8_159
*731 sky130_fd_sc_hd__tapvpwrvgnd_1_174
*732 sky130_fd_sc_hd__tapvpwrvgnd_1_175
*733 sky130_fd_sc_hd__tapvpwrvgnd_1_308
*734 sky130_fd_sc_hd__tapvpwrvgnd_1_172
*735 sky130_fd_sc_hd__tapvpwrvgnd_1_173
*736 sky130_fd_sc_hd__tapvpwrvgnd_1_307
*737 sky130_fd_sc_hd__tapvpwrvgnd_1_28
*738 sky130_fd_sc_hd__tapvpwrvgnd_1_274
*739 sky130_fd_sc_hd__tapvpwrvgnd_1_272
*740 sky130_ef_sc_hd__decap_12_86
*741 sky130_fd_sc_hd__buf_8_25
*742 sky130_fd_sc_hd__tapvpwrvgnd_1_29
*743 sky130_fd_sc_hd__tapvpwrvgnd_1_275
*744 sky130_fd_sc_hd__buf_8_24
*745 sky130_fd_sc_hd__tapvpwrvgnd_1_1
*746 sky130_ef_sc_hd__decap_12_85
*747 sky130_fd_sc_hd__buf_8_26
*748 sky130_fd_sc_hd__buf_8_27
*749 sky130_ef_sc_hd__decap_12_87
*750 sky130_fd_sc_hd__buf_8_28
*751 sky130_fd_sc_hd__tapvpwrvgnd_1_0
*752 sky130_fd_sc_hd__tapvpwrvgnd_1_30
*753 sky130_fd_sc_hd__buf_8_29
*754 sky130_fd_sc_hd__tapvpwrvgnd_1_31
*755 sky130_ef_sc_hd__decap_12_83
*756 sky130_fd_sc_hd__buf_8_30
*757 sky130_fd_sc_hd__tapvpwrvgnd_1_32
*758 sky130_fd_sc_hd__tapvpwrvgnd_1_277
*759 sky130_fd_sc_hd__buf_8_31
*760 sky130_fd_sc_hd__tapvpwrvgnd_1_33
*761 sky130_ef_sc_hd__decap_12_82
*762 sky130_fd_sc_hd__buf_8_41
*763 sky130_fd_sc_hd__tapvpwrvgnd_1_34
*764 sky130_fd_sc_hd__tapvpwrvgnd_1_278
*765 sky130_fd_sc_hd__buf_8_40
*766 sky130_fd_sc_hd__tapvpwrvgnd_1_35
*767 sky130_ef_sc_hd__decap_12_84
*768 sky130_fd_sc_hd__buf_8_32
*769 sky130_fd_sc_hd__tapvpwrvgnd_1_45
*770 sky130_fd_sc_hd__tapvpwrvgnd_1_276
*771 sky130_fd_sc_hd__buf_8_33
*772 sky130_fd_sc_hd__tapvpwrvgnd_1_44
*773 sky130_fd_sc_hd__tapvpwrvgnd_1_36
*774 sky130_fd_sc_hd__tapvpwrvgnd_1_279
*775 sky130_fd_sc_hd__tapvpwrvgnd_1_37
*776 sky130_fd_sc_hd__tapvpwrvgnd_1_200
*777 sky130_fd_sc_hd__tapvpwrvgnd_1_201
*778 sky130_fd_sc_hd__tapvpwrvgnd_1_291
*779 sky130_ef_sc_hd__decap_12_73
*780 sky130_fd_sc_hd__buf_8_185
*781 sky130_fd_sc_hd__buf_8_186
*782 sky130_fd_sc_hd__tapvpwrvgnd_1_202
*783 sky130_fd_sc_hd__tapvpwrvgnd_1_203
*784 sky130_fd_sc_hd__tapvpwrvgnd_1_292
*785 sky130_ef_sc_hd__decap_12_72
*786 sky130_fd_sc_hd__buf_8_187
*787 sky130_fd_sc_hd__buf_8_188
*788 sky130_fd_sc_hd__tapvpwrvgnd_1_204
*789 sky130_fd_sc_hd__tapvpwrvgnd_1_205
*790 sky130_fd_sc_hd__tapvpwrvgnd_1_293
*791 sky130_ef_sc_hd__decap_12_71
*792 sky130_fd_sc_hd__buf_8_189
*793 sky130_fd_sc_hd__buf_8_190
*794 sky130_fd_sc_hd__tapvpwrvgnd_1_206
*795 sky130_fd_sc_hd__tapvpwrvgnd_1_207
*796 sky130_fd_sc_hd__tapvpwrvgnd_1_294
*797 sky130_ef_sc_hd__decap_12_70
*798 sky130_fd_sc_hd__buf_8_181
*799 sky130_fd_sc_hd__buf_8_182
*800 sky130_fd_sc_hd__tapvpwrvgnd_1_196
*801 sky130_fd_sc_hd__tapvpwrvgnd_1_197
*802 sky130_fd_sc_hd__tapvpwrvgnd_1_296
*803 sky130_ef_sc_hd__decap_12_69
*804 sky130_fd_sc_hd__buf_8_183
*805 sky130_fd_sc_hd__buf_8_184
*806 sky130_fd_sc_hd__tapvpwrvgnd_1_198
*807 sky130_fd_sc_hd__tapvpwrvgnd_1_199
*808 sky130_fd_sc_hd__tapvpwrvgnd_1_295
*809 sky130_ef_sc_hd__decap_12_75
*810 sky130_ef_sc_hd__decap_12_76
*811 sky130_fd_sc_hd__tapvpwrvgnd_1_51
*812 sky130_fd_sc_hd__tapvpwrvgnd_1_288
*813 sky130_ef_sc_hd__decap_12_74
*814 sky130_fd_sc_hd__tapvpwrvgnd_1_289
*815 sky130_fd_sc_hd__tapvpwrvgnd_1_290
*816 sky130_fd_sc_hd__buf_8_38
*817 sky130_fd_sc_hd__buf_8_39
*818 sky130_fd_sc_hd__buf_8_44
*819 sky130_fd_sc_hd__buf_8_45
*820 sky130_fd_sc_hd__tapvpwrvgnd_1_48
*821 sky130_fd_sc_hd__tapvpwrvgnd_1_49
*822 sky130_fd_sc_hd__tapvpwrvgnd_1_50
*823 sky130_fd_sc_hd__tapvpwrvgnd_1_287
*824 sky130_fd_sc_hd__buf_8_42
*825 sky130_fd_sc_hd__buf_8_43
*826 sky130_fd_sc_hd__tapvpwrvgnd_1_42
*827 sky130_fd_sc_hd__tapvpwrvgnd_1_43
*828 sky130_fd_sc_hd__tapvpwrvgnd_1_46
*829 sky130_fd_sc_hd__tapvpwrvgnd_1_47
*830 sky130_ef_sc_hd__decap_12_77
*831 sky130_fd_sc_hd__buf_8_10
*832 sky130_fd_sc_hd__buf_8_11
*833 sky130_fd_sc_hd__tapvpwrvgnd_1_14
*834 sky130_fd_sc_hd__tapvpwrvgnd_1_15
*835 sky130_fd_sc_hd__tapvpwrvgnd_1_40
*836 sky130_fd_sc_hd__tapvpwrvgnd_1_41
*837 sky130_fd_sc_hd__tapvpwrvgnd_1_285
*838 sky130_fd_sc_hd__tapvpwrvgnd_1_286
*839 sky130_ef_sc_hd__decap_12_81
*840 sky130_fd_sc_hd__buf_8_180
*841 sky130_fd_sc_hd__buf_8_194
*842 sky130_fd_sc_hd__tapvpwrvgnd_1_208
*843 sky130_fd_sc_hd__tapvpwrvgnd_1_212
*844 sky130_fd_sc_hd__tapvpwrvgnd_1_280
*845 sky130_ef_sc_hd__decap_12_78
*846 sky130_ef_sc_hd__decap_12_80
*847 sky130_fd_sc_hd__tapvpwrvgnd_1_281
*848 sky130_fd_sc_hd__tapvpwrvgnd_1_283
*849 sky130_fd_sc_hd__buf_8_191
*850 sky130_fd_sc_hd__buf_8_192
*851 sky130_fd_sc_hd__buf_8_195
*852 sky130_fd_sc_hd__buf_8_196
*853 sky130_fd_sc_hd__tapvpwrvgnd_1_209
*854 sky130_fd_sc_hd__tapvpwrvgnd_1_210
*855 sky130_fd_sc_hd__tapvpwrvgnd_1_213
*856 sky130_fd_sc_hd__tapvpwrvgnd_1_214
*857 sky130_ef_sc_hd__decap_12_79
*858 sky130_fd_sc_hd__buf_8_193
*859 sky130_fd_sc_hd__buf_8_197
*860 sky130_fd_sc_hd__tapvpwrvgnd_1_211
*861 sky130_fd_sc_hd__tapvpwrvgnd_1_215
*862 sky130_fd_sc_hd__tapvpwrvgnd_1_216
*863 sky130_fd_sc_hd__tapvpwrvgnd_1_217
*864 sky130_fd_sc_hd__tapvpwrvgnd_1_282
*865 sky130_fd_sc_hd__tapvpwrvgnd_1_284

*PORTS
mgmt_io_in_unbuf[12] I
mgmt_io_in_unbuf[14] I
mgmt_io_in_unbuf[13] I
mgmt_io_in_unbuf[10] I
mgmt_io_in_unbuf[9] I
mgmt_io_in_unbuf[8] I
mgmt_io_in_unbuf[4] I
mgmt_io_in_unbuf[7] I
mgmt_io_in_unbuf[6] I
mgmt_io_in_unbuf[5] I
mgmt_io_in_unbuf[0] I
mgmt_io_in_unbuf[1] I
mgmt_io_in_unbuf[2] I
mgmt_io_in_unbuf[3] I