*SPEF "ieee 1481-1999"
*DESIGN "gpio_signal_buffering"
*DATE "11:11:11 Fri 11 11, 1111"
*VENDOR "OpenRCX"
*PROGRAM "Parallel Extraction"
*VERSION "1.0"
*DESIGN_FLOW "NAME_SCOPE LOCAL" "PIN_CAP NONE"
*DIVIDER /
*DELIMITER :
*BUS_DELIMITER []
*T_UNIT 1 NS
*C_UNIT 1 PF
*R_UNIT 1 OHM
*L_UNIT 1 HENRY

*NAME_MAP
*1 mgmt_io_in_unbuf[12]
*2 mgmt_io_in_unbuf[14]
*3 mgmt_io_in_unbuf[13]
*4 mgmt_io_in_unbuf[10]
*5 mgmt_io_in_unbuf[9]
*6 mgmt_io_in_unbuf[8]
*7 mgmt_io_in_unbuf[4]
*8 mgmt_io_in_unbuf[7]
*9 mgmt_io_in_unbuf[6]
*10 mgmt_io_in_unbuf[5]
*11 mgmt_io_in_unbuf[0]
*12 mgmt_io_in_unbuf[1]
*13 mgmt_io_in_unbuf[2]
*14 mgmt_io_in_unbuf[3]
*15 mgmt_io_out_buf[27]
*16 mgmt_io_out_buf[28]
*17 mgmt_io_out_buf[29]
*18 mgmt_io_out_buf[30]
*19 mgmt_io_out_buf[20]
*20 mgmt_io_out_buf[15]
*21 mgmt_io_out_buf[16]
*22 mgmt_io_out_buf[17]
*23 mgmt_io_out_buf[18]
*24 mgmt_io_out_buf[19]
*25 mgmt_io_out_buf[26]
*26 mgmt_io_out_buf[25]
*27 mgmt_io_out_buf[24]
*28 mgmt_io_out_buf[23]
*29 mgmt_io_out_buf[22]
*30 mgmt_io_out_buf[21]
*31 mgmt_io_out_unbuf[14]
*32 mgmt_io_in_buf[4]
*33 mgmt_io_in_buf[11]
*34 mgmt_io_in_buf[10]
*35 mgmt_io_in_buf[9]
*36 mgmt_io_in_buf[8]
*37 mgmt_io_in_buf[7]
*38 mgmt_io_in_buf[6]
*39 mgmt_io_in_buf[5]
*40 mgmt_io_in_buf[0]
*41 mgmt_io_in_buf[1]
*42 mgmt_io_in_buf[2]
*43 mgmt_io_in_buf[3]
*44 mgmt_io_out_unbuf[26]
*45 mgmt_io_out_unbuf[25]
*46 mgmt_io_out_unbuf[24]
*47 mgmt_io_out_unbuf[23]
*48 mgmt_io_out_unbuf[22]
*49 mgmt_io_out_unbuf[21]
*50 mgmt_io_out_unbuf[20]
*51 mgmt_io_out_unbuf[19]
*52 mgmt_io_out_unbuf[18]
*53 mgmt_io_out_unbuf[17]
*54 mgmt_io_out_unbuf[16]
*55 mgmt_io_out_unbuf[15]
*56 mgmt_io_out_unbuf[27]
*57 mgmt_io_out_unbuf[28]
*58 mgmt_io_out_unbuf[29]
*59 mgmt_io_out_unbuf[30]
*60 mgmt_io_oeb_unbuf[0]
*61 mgmt_io_oeb_unbuf[2]
*62 mgmt_io_oeb_unbuf[1]
*63 mgmt_io_out_unbuf[13]
*64 mgmt_io_out_unbuf[12]
*65 mgmt_io_out_buf[11]
*66 mgmt_io_in_buf[30]
*67 mgmt_io_in_buf[29]
*68 mgmt_io_in_buf[28]
*69 mgmt_io_in_buf[27]
*70 mgmt_io_in_buf[12]
*71 mgmt_io_in_buf[13]
*72 mgmt_io_in_buf[14]
*73 mgmt_io_in_buf[15]
*74 mgmt_io_in_buf[16]
*75 mgmt_io_in_buf[17]
*76 mgmt_io_in_buf[18]
*77 mgmt_io_in_buf[19]
*78 mgmt_io_in_buf[20]
*79 mgmt_io_in_buf[21]
*80 mgmt_io_in_buf[22]
*81 mgmt_io_in_buf[23]
*82 mgmt_io_in_buf[24]
*83 mgmt_io_in_buf[25]
*84 mgmt_io_in_buf[26]
*85 mgmt_io_out_unbuf[1]
*86 mgmt_io_out_unbuf[2]
*87 mgmt_io_out_unbuf[0]
*88 mgmt_io_out_unbuf[3]
*89 mgmt_io_out_unbuf[4]
*90 mgmt_io_out_unbuf[5]
*91 mgmt_io_out_unbuf[6]
*92 mgmt_io_out_unbuf[7]
*93 mgmt_io_out_unbuf[8]
*94 mgmt_io_out_unbuf[9]
*95 mgmt_io_out_unbuf[10]
*96 mgmt_io_out_unbuf[11]
*97 mgmt_io_out_buf[0]
*98 mgmt_io_out_buf[1]
*99 mgmt_io_out_buf[2]
*100 mgmt_io_out_buf[3]
*101 mgmt_io_out_buf[4]
*102 mgmt_io_out_buf[5]
*103 mgmt_io_out_buf[6]
*104 mgmt_io_out_buf[7]
*105 mgmt_io_out_buf[10]
*106 mgmt_io_out_buf[9]
*107 mgmt_io_out_buf[8]
*108 mgmt_io_in_unbuf[11]
*109 mgmt_io_out_buf[12]
*110 mgmt_io_out_buf[13]
*111 mgmt_io_out_buf[14]
*112 mgmt_io_in_unbuf[15]
*113 mgmt_io_in_unbuf[16]
*114 mgmt_io_in_unbuf[17]
*115 mgmt_io_in_unbuf[18]
*116 mgmt_io_in_unbuf[19]
*117 mgmt_io_in_unbuf[20]
*118 mgmt_io_in_unbuf[21]
*119 mgmt_io_in_unbuf[22]
*120 mgmt_io_in_unbuf[23]
*121 mgmt_io_in_unbuf[24]
*122 mgmt_io_in_unbuf[25]
*123 mgmt_io_in_unbuf[26]
*124 mgmt_io_oeb_buf[2]
*125 mgmt_io_oeb_buf[1]
*126 mgmt_io_oeb_buf[0]
*127 mgmt_io_in_unbuf[30]
*128 mgmt_io_in_unbuf[29]
*129 mgmt_io_in_unbuf[28]
*130 mgmt_io_in_unbuf[27]
*131 vccd
*132 vssd
*133 sky130_fd_sc_hd__buf_8_29__A
*134 sky130_fd_sc_hd__buf_8_28__X
*135 sky130_fd_sc_hd__buf_8_29__X
*136 sky130_fd_sc_hd__buf_8_40__A
*137 sky130_fd_sc_hd__buf_8_28__A
*138 sky130_fd_sc_hd__buf_8_41__X
*139 sky130_fd_sc_hd__buf_8_59__X
*140 sky130_fd_sc_hd__buf_8_59__A
*141 sky130_fd_sc_hd__buf_8_37__X
*142 sky130_fd_sc_hd__buf_8_27__A
*143 sky130_fd_sc_hd__buf_8_171__X
*144 sky130_fd_sc_hd__buf_8_69__X
*145 sky130_fd_sc_hd__buf_8_69__A
*146 sky130_fd_sc_hd__buf_8_58__X
*147 sky130_fd_sc_hd__buf_8_58__A
*148 sky130_fd_sc_hd__buf_8_36__A
*149 sky130_fd_sc_hd__buf_8_26__X
*150 sky130_fd_sc_hd__buf_8_170__A
*151 sky130_fd_sc_hd__buf_8_178__A
*152 sky130_fd_sc_hd__buf_8_183__X
*153 sky130_fd_sc_hd__buf_8_93__A
*154 sky130_fd_sc_hd__buf_8_79__A
*155 sky130_fd_sc_hd__buf_8_68__X
*156 sky130_fd_sc_hd__buf_8_68__A
*157 sky130_fd_sc_hd__buf_8_57__X
*158 sky130_fd_sc_hd__buf_8_57__A
*159 sky130_fd_sc_hd__buf_8_169__X
*160 sky130_fd_sc_hd__buf_8_179__X
*161 sky130_fd_sc_hd__buf_8_184__A
*162 sky130_fd_sc_hd__buf_8_78__X
*163 sky130_fd_sc_hd__buf_8_92__X
*164 sky130_fd_sc_hd__buf_8_67__X
*165 sky130_fd_sc_hd__buf_8_67__A
*166 sky130_fd_sc_hd__buf_8_56__X
*167 sky130_fd_sc_hd__buf_8_0__X
*168 sky130_fd_sc_hd__buf_8_33__A
*169 sky130_fd_sc_hd__buf_8_158__A
*170 sky130_fd_sc_hd__buf_8_168__A
*171 sky130_fd_sc_hd__buf_8_176__A
*172 sky130_fd_sc_hd__buf_8_77__X
*173 sky130_fd_sc_hd__buf_8_94__X
*174 sky130_fd_sc_hd__buf_8_66__X
*175 sky130_fd_sc_hd__buf_8_66__A
*176 sky130_fd_sc_hd__buf_8_55__A
*177 sky130_fd_sc_hd__buf_8_32__X
*178 sky130_fd_sc_hd__buf_8_33__X
*179 sky130_fd_sc_hd__buf_8_11__X
*180 sky130_fd_sc_hd__buf_8_159__X
*181 sky130_fd_sc_hd__buf_8_166__A
*182 sky130_fd_sc_hd__buf_8_177__X
*183 sky130_fd_sc_hd__buf_8_186__X
*184 sky130_fd_sc_hd__buf_8_39__X
*185 sky130_fd_sc_hd__buf_8_95__A
*186 sky130_fd_sc_hd__buf_8_76__A
*187 sky130_fd_sc_hd__buf_8_65__X
*188 sky130_fd_sc_hd__buf_8_65__A
*189 sky130_fd_sc_hd__buf_8_54__X
*190 sky130_fd_sc_hd__buf_8_54__A
*191 sky130_fd_sc_hd__buf_8_31__A
*192 sky130_fd_sc_hd__buf_8_32__A
*193 sky130_fd_sc_hd__buf_8_10__A
*194 sky130_fd_sc_hd__buf_8_165__X
*195 sky130_fd_sc_hd__buf_8_167__X
*196 sky130_fd_sc_hd__buf_8_185__A
*197 sky130_fd_sc_hd__buf_8_75__X
*198 sky130_fd_sc_hd__buf_8_98__X
*199 sky130_fd_sc_hd__buf_8_64__X
*200 sky130_fd_sc_hd__buf_8_64__A
*201 sky130_fd_sc_hd__buf_8_30__X
*202 sky130_fd_sc_hd__buf_8_31__X
*203 sky130_fd_sc_hd__buf_8_164__A
*204 sky130_fd_sc_hd__buf_8_175__X
*205 sky130_fd_sc_hd__buf_8_188__X
*206 sky130_fd_sc_hd__buf_8_85__X
*207 sky130_fd_sc_hd__buf_8_96__A
*208 sky130_fd_sc_hd__buf_8_74__A
*209 sky130_fd_sc_hd__buf_8_63__X
*210 sky130_fd_sc_hd__buf_8_63__A
*211 sky130_fd_sc_hd__buf_8_30__A
*212 sky130_fd_sc_hd__buf_8_41__A
*213 sky130_fd_sc_hd__buf_8_162__A
*214 sky130_fd_sc_hd__buf_8_174__A
*215 sky130_fd_sc_hd__buf_8_187__A
*216 sky130_fd_sc_hd__buf_8_84__A
*217 sky130_fd_sc_hd__buf_8_73__X
*218 sky130_fd_sc_hd__buf_8_99__X
*219 sky130_fd_sc_hd__buf_8_62__X
*220 sky130_fd_sc_hd__buf_8_62__A
*221 sky130_fd_sc_hd__buf_8_40__X
*222 sky130_fd_sc_hd__buf_8_163__X
*223 sky130_fd_sc_hd__buf_8_172__X
*224 sky130_fd_sc_hd__buf_8_189__X
*225 sky130_fd_sc_hd__buf_8_83__X
*226 sky130_fd_sc_hd__buf_8_88__X
*227 sky130_fd_sc_hd__buf_8_97__A
*228 sky130_fd_sc_hd__buf_8_72__A
*229 sky130_fd_sc_hd__buf_8_61__X
*230 sky130_fd_sc_hd__buf_8_61__A
*231 sky130_fd_sc_hd__buf_8_160__A
*232 sky130_fd_sc_hd__buf_8_173__A
*233 sky130_fd_sc_hd__buf_8_190__A
*234 sky130_fd_sc_hd__buf_8_43__A
*235 sky130_fd_sc_hd__buf_8_89__A
*236 sky130_fd_sc_hd__buf_8_82__A
*237 sky130_fd_sc_hd__buf_8_71__X
*238 sky130_fd_sc_hd__buf_8_71__A
*239 sky130_fd_sc_hd__buf_8_60__X
*240 sky130_fd_sc_hd__buf_8_60__A
*241 sky130_fd_sc_hd__buf_8_181__X
*242 sky130_fd_sc_hd__buf_8_42__X
*243 sky130_fd_sc_hd__buf_8_81__X
*244 sky130_fd_sc_hd__buf_8_91__X
*245 sky130_fd_sc_hd__buf_8_70__X
*246 sky130_fd_sc_hd__buf_8_70__A
*247 sky130_fd_sc_hd__buf_8_182__A
*248 sky130_fd_sc_hd__buf_8_44__A
*249 sky130_fd_sc_hd__buf_8_90__A
*250 sky130_fd_sc_hd__buf_8_80__A
*251 sky130_fd_sc_hd__buf_8_38__X
*252 sky130_fd_sc_hd__buf_8_45__A
*253 sky130_fd_sc_hd__buf_8_9__A
*254 sky130_fd_sc_hd__buf_8_8__A
*255 sky130_fd_sc_hd__buf_8_7__A
*256 sky130_fd_sc_hd__buf_8_6__X
*257 sky130_fd_sc_hd__buf_8_5__A
*258 sky130_fd_sc_hd__buf_8_4__X
*259 sky130_fd_sc_hd__buf_8_3__A
*260 sky130_fd_sc_hd__buf_8_2__X
*261 sky130_fd_sc_hd__buf_8_1__X
*262 sky130_fd_sc_hd__buf_8_1__A
*263 sky130_fd_sc_hd__buf_8_0__A
*264 sky130_ef_sc_hd__decap_12_21
*265 sky130_ef_sc_hd__decap_12_24
*266 sky130_fd_sc_hd__buf_8_1
*267 sky130_fd_sc_hd__tapvpwrvgnd_1_3
*268 sky130_fd_sc_hd__tapvpwrvgnd_1_238
*269 sky130_fd_sc_hd__tapvpwrvgnd_1_241
*270 sky130_fd_sc_hd__buf_8_82
*271 sky130_fd_sc_hd__buf_8_83
*272 sky130_fd_sc_hd__tapvpwrvgnd_1_92
*273 sky130_fd_sc_hd__tapvpwrvgnd_1_93
*274 sky130_fd_sc_hd__buf_8_80
*275 sky130_fd_sc_hd__buf_8_81
*276 sky130_fd_sc_hd__tapvpwrvgnd_1_90
*277 sky130_fd_sc_hd__tapvpwrvgnd_1_91
*278 sky130_ef_sc_hd__decap_12_23
*279 sky130_fd_sc_hd__tapvpwrvgnd_1_240
*280 sky130_ef_sc_hd__decap_12_26
*281 sky130_fd_sc_hd__tapvpwrvgnd_1_242
*282 sky130_fd_sc_hd__buf_8_78
*283 sky130_fd_sc_hd__buf_8_79
*284 sky130_fd_sc_hd__tapvpwrvgnd_1_88
*285 sky130_fd_sc_hd__tapvpwrvgnd_1_89
*286 sky130_fd_sc_hd__buf_8_76
*287 sky130_fd_sc_hd__buf_8_77
*288 sky130_fd_sc_hd__tapvpwrvgnd_1_86
*289 sky130_fd_sc_hd__tapvpwrvgnd_1_87
*290 sky130_ef_sc_hd__decap_12_25
*291 sky130_fd_sc_hd__tapvpwrvgnd_1_243
*292 sky130_ef_sc_hd__decap_12_27
*293 sky130_fd_sc_hd__tapvpwrvgnd_1_244
*294 sky130_fd_sc_hd__buf_8_74
*295 sky130_fd_sc_hd__buf_8_75
*296 sky130_fd_sc_hd__tapvpwrvgnd_1_84
*297 sky130_fd_sc_hd__tapvpwrvgnd_1_85
*298 sky130_fd_sc_hd__buf_8_72
*299 sky130_fd_sc_hd__buf_8_73
*300 sky130_fd_sc_hd__tapvpwrvgnd_1_82
*301 sky130_fd_sc_hd__tapvpwrvgnd_1_83
*302 sky130_fd_sc_hd__buf_8_70
*303 sky130_fd_sc_hd__buf_8_71
*304 sky130_fd_sc_hd__tapvpwrvgnd_1_80
*305 sky130_fd_sc_hd__tapvpwrvgnd_1_81
*306 sky130_ef_sc_hd__decap_12_29
*307 sky130_fd_sc_hd__tapvpwrvgnd_1_246
*308 sky130_ef_sc_hd__decap_12_28
*309 sky130_fd_sc_hd__tapvpwrvgnd_1_245
*310 sky130_ef_sc_hd__decap_12_30
*311 sky130_fd_sc_hd__tapvpwrvgnd_1_247
*312 sky130_fd_sc_hd__buf_8_68
*313 sky130_fd_sc_hd__buf_8_69
*314 sky130_fd_sc_hd__tapvpwrvgnd_1_78
*315 sky130_fd_sc_hd__tapvpwrvgnd_1_79
*316 sky130_fd_sc_hd__buf_8_66
*317 sky130_fd_sc_hd__buf_8_67
*318 sky130_fd_sc_hd__tapvpwrvgnd_1_76
*319 sky130_fd_sc_hd__tapvpwrvgnd_1_77
*320 sky130_ef_sc_hd__decap_12_32
*321 sky130_fd_sc_hd__tapvpwrvgnd_1_249
*322 sky130_ef_sc_hd__decap_12_31
*323 sky130_fd_sc_hd__tapvpwrvgnd_1_248
*324 sky130_fd_sc_hd__buf_8_64
*325 sky130_fd_sc_hd__buf_8_65
*326 sky130_fd_sc_hd__tapvpwrvgnd_1_74
*327 sky130_fd_sc_hd__tapvpwrvgnd_1_75
*328 sky130_fd_sc_hd__buf_8_62
*329 sky130_fd_sc_hd__buf_8_63
*330 sky130_fd_sc_hd__tapvpwrvgnd_1_72
*331 sky130_fd_sc_hd__tapvpwrvgnd_1_73
*332 sky130_ef_sc_hd__decap_12_34
*333 sky130_fd_sc_hd__tapvpwrvgnd_1_250
*334 sky130_ef_sc_hd__decap_12_33
*335 sky130_fd_sc_hd__tapvpwrvgnd_1_251
*336 sky130_fd_sc_hd__buf_8_60
*337 sky130_fd_sc_hd__buf_8_61
*338 sky130_fd_sc_hd__tapvpwrvgnd_1_70
*339 sky130_fd_sc_hd__tapvpwrvgnd_1_71
*340 sky130_fd_sc_hd__buf_8_58
*341 sky130_fd_sc_hd__buf_8_59
*342 sky130_fd_sc_hd__tapvpwrvgnd_1_68
*343 sky130_fd_sc_hd__tapvpwrvgnd_1_69
*344 sky130_fd_sc_hd__buf_8_56
*345 sky130_fd_sc_hd__buf_8_57
*346 sky130_fd_sc_hd__tapvpwrvgnd_1_66
*347 sky130_fd_sc_hd__tapvpwrvgnd_1_67
*348 sky130_ef_sc_hd__decap_12_36
*349 sky130_fd_sc_hd__tapvpwrvgnd_1_253
*350 sky130_ef_sc_hd__decap_12_35
*351 sky130_fd_sc_hd__tapvpwrvgnd_1_252
*352 sky130_ef_sc_hd__decap_12_37
*353 sky130_fd_sc_hd__tapvpwrvgnd_1_254
*354 sky130_fd_sc_hd__buf_8_54
*355 sky130_fd_sc_hd__buf_8_55
*356 sky130_fd_sc_hd__tapvpwrvgnd_1_64
*357 sky130_fd_sc_hd__tapvpwrvgnd_1_65
*358 sky130_fd_sc_hd__buf_8_2
*359 sky130_fd_sc_hd__buf_8_3
*360 sky130_fd_sc_hd__tapvpwrvgnd_1_6
*361 sky130_fd_sc_hd__tapvpwrvgnd_1_7
*362 sky130_ef_sc_hd__decap_12_39
*363 sky130_fd_sc_hd__tapvpwrvgnd_1_256
*364 sky130_ef_sc_hd__decap_12_40
*365 sky130_fd_sc_hd__tapvpwrvgnd_1_257
*366 sky130_fd_sc_hd__buf_8_84
*367 sky130_fd_sc_hd__buf_8_85
*368 sky130_fd_sc_hd__tapvpwrvgnd_1_94
*369 sky130_fd_sc_hd__tapvpwrvgnd_1_95
*370 sky130_fd_sc_hd__buf_8_4
*371 sky130_fd_sc_hd__buf_8_5
*372 sky130_fd_sc_hd__tapvpwrvgnd_1_4
*373 sky130_fd_sc_hd__tapvpwrvgnd_1_5
*374 sky130_fd_sc_hd__tapvpwrvgnd_1_8
*375 sky130_fd_sc_hd__tapvpwrvgnd_1_9
*376 sky130_ef_sc_hd__decap_12_38
*377 sky130_fd_sc_hd__tapvpwrvgnd_1_255
*378 sky130_ef_sc_hd__decap_12_42
*379 sky130_fd_sc_hd__tapvpwrvgnd_1_259
*380 sky130_fd_sc_hd__tapvpwrvgnd_1_258
*381 sky130_fd_sc_hd__buf_8_6
*382 sky130_fd_sc_hd__buf_8_7
*383 sky130_fd_sc_hd__tapvpwrvgnd_1_10
*384 sky130_fd_sc_hd__tapvpwrvgnd_1_11
*385 sky130_fd_sc_hd__buf_8_8
*386 sky130_fd_sc_hd__buf_8_9
*387 sky130_fd_sc_hd__tapvpwrvgnd_1_12
*388 sky130_fd_sc_hd__tapvpwrvgnd_1_13
*389 sky130_ef_sc_hd__decap_12_41
*390 sky130_fd_sc_hd__tapvpwrvgnd_1_260
*391 sky130_ef_sc_hd__decap_12_43
*392 sky130_fd_sc_hd__tapvpwrvgnd_1_326
*393 sky130_ef_sc_hd__decap_12_1
*394 sky130_fd_sc_hd__buf_8_86
*395 sky130_fd_sc_hd__tapvpwrvgnd_1_96
*396 sky130_fd_sc_hd__tapvpwrvgnd_1_97
*397 sky130_fd_sc_hd__buf_8_88
*398 sky130_fd_sc_hd__buf_8_89
*399 sky130_fd_sc_hd__tapvpwrvgnd_1_98
*400 sky130_fd_sc_hd__tapvpwrvgnd_1_99
*401 sky130_ef_sc_hd__decap_12_22
*402 sky130_fd_sc_hd__tapvpwrvgnd_1_239
*403 sky130_ef_sc_hd__decap_12_2
*404 sky130_fd_sc_hd__tapvpwrvgnd_1_218
*405 sky130_fd_sc_hd__buf_8_90
*406 sky130_fd_sc_hd__buf_8_91
*407 sky130_fd_sc_hd__tapvpwrvgnd_1_100
*408 sky130_fd_sc_hd__tapvpwrvgnd_1_101
*409 sky130_fd_sc_hd__buf_8_92
*410 sky130_fd_sc_hd__buf_8_93
*411 sky130_fd_sc_hd__tapvpwrvgnd_1_104
*412 sky130_fd_sc_hd__tapvpwrvgnd_1_105
*413 sky130_fd_sc_hd__buf_8_94
*414 sky130_fd_sc_hd__buf_8_95
*415 sky130_fd_sc_hd__tapvpwrvgnd_1_102
*416 sky130_fd_sc_hd__tapvpwrvgnd_1_103
*417 sky130_ef_sc_hd__decap_12_3
*418 sky130_fd_sc_hd__tapvpwrvgnd_1_219
*419 sky130_ef_sc_hd__decap_12_4
*420 sky130_fd_sc_hd__tapvpwrvgnd_1_220
*421 sky130_ef_sc_hd__decap_12_0
*422 sky130_fd_sc_hd__tapvpwrvgnd_1_2
*423 sky130_fd_sc_hd__buf_8_96
*424 sky130_fd_sc_hd__buf_8_98
*425 sky130_fd_sc_hd__tapvpwrvgnd_1_106
*426 sky130_fd_sc_hd__tapvpwrvgnd_1_109
*427 sky130_fd_sc_hd__buf_8_97
*428 sky130_fd_sc_hd__buf_8_99
*429 sky130_fd_sc_hd__tapvpwrvgnd_1_107
*430 sky130_fd_sc_hd__tapvpwrvgnd_1_110
*431 sky130_fd_sc_hd__buf_8_100
*432 sky130_fd_sc_hd__buf_8_103
*433 sky130_fd_sc_hd__tapvpwrvgnd_1_108
*434 sky130_fd_sc_hd__tapvpwrvgnd_1_111
*435 sky130_ef_sc_hd__decap_12_6
*436 sky130_fd_sc_hd__tapvpwrvgnd_1_222
*437 sky130_ef_sc_hd__decap_12_7
*438 sky130_fd_sc_hd__tapvpwrvgnd_1_223
*439 sky130_ef_sc_hd__decap_12_8
*440 sky130_fd_sc_hd__tapvpwrvgnd_1_224
*441 sky130_fd_sc_hd__buf_8_101
*442 sky130_fd_sc_hd__buf_8_104
*443 sky130_fd_sc_hd__tapvpwrvgnd_1_112
*444 sky130_fd_sc_hd__tapvpwrvgnd_1_114
*445 sky130_fd_sc_hd__buf_8_102
*446 sky130_fd_sc_hd__buf_8_105
*447 sky130_fd_sc_hd__tapvpwrvgnd_1_113
*448 sky130_fd_sc_hd__tapvpwrvgnd_1_115
*449 sky130_fd_sc_hd__buf_8_106
*450 sky130_fd_sc_hd__buf_8_107
*451 sky130_fd_sc_hd__tapvpwrvgnd_1_116
*452 sky130_fd_sc_hd__tapvpwrvgnd_1_117
*453 sky130_ef_sc_hd__decap_12_9
*454 sky130_fd_sc_hd__tapvpwrvgnd_1_225
*455 sky130_ef_sc_hd__decap_12_10
*456 sky130_fd_sc_hd__tapvpwrvgnd_1_226
*457 sky130_ef_sc_hd__decap_12_5
*458 sky130_fd_sc_hd__tapvpwrvgnd_1_221
*459 sky130_fd_sc_hd__buf_8_108
*460 sky130_fd_sc_hd__buf_8_109
*461 sky130_fd_sc_hd__tapvpwrvgnd_1_118
*462 sky130_fd_sc_hd__tapvpwrvgnd_1_119
*463 sky130_fd_sc_hd__buf_8_110
*464 sky130_fd_sc_hd__buf_8_111
*465 sky130_fd_sc_hd__tapvpwrvgnd_1_120
*466 sky130_fd_sc_hd__tapvpwrvgnd_1_121
*467 sky130_ef_sc_hd__decap_12_11
*468 sky130_fd_sc_hd__tapvpwrvgnd_1_227
*469 sky130_ef_sc_hd__decap_12_13
*470 sky130_fd_sc_hd__tapvpwrvgnd_1_229
*471 sky130_fd_sc_hd__buf_8_112
*472 sky130_fd_sc_hd__buf_8_113
*473 sky130_fd_sc_hd__tapvpwrvgnd_1_122
*474 sky130_fd_sc_hd__tapvpwrvgnd_1_123
*475 sky130_fd_sc_hd__buf_8_114
*476 sky130_fd_sc_hd__buf_8_115
*477 sky130_fd_sc_hd__tapvpwrvgnd_1_124
*478 sky130_fd_sc_hd__tapvpwrvgnd_1_125
*479 sky130_ef_sc_hd__decap_12_12
*480 sky130_fd_sc_hd__tapvpwrvgnd_1_228
*481 sky130_ef_sc_hd__decap_12_14
*482 sky130_fd_sc_hd__tapvpwrvgnd_1_230
*483 sky130_ef_sc_hd__decap_12_15
*484 sky130_fd_sc_hd__buf_8_116
*485 sky130_fd_sc_hd__buf_8_117
*486 sky130_fd_sc_hd__tapvpwrvgnd_1_126
*487 sky130_fd_sc_hd__tapvpwrvgnd_1_127
*488 sky130_fd_sc_hd__tapvpwrvgnd_1_231
*489 sky130_ef_sc_hd__decap_12_16
*490 sky130_fd_sc_hd__buf_8_118
*491 sky130_fd_sc_hd__buf_8_119
*492 sky130_fd_sc_hd__tapvpwrvgnd_1_128
*493 sky130_fd_sc_hd__tapvpwrvgnd_1_129
*494 sky130_fd_sc_hd__tapvpwrvgnd_1_232
*495 sky130_ef_sc_hd__decap_12_18
*496 sky130_fd_sc_hd__buf_8_120
*497 sky130_fd_sc_hd__buf_8_121
*498 sky130_fd_sc_hd__tapvpwrvgnd_1_130
*499 sky130_fd_sc_hd__tapvpwrvgnd_1_131
*500 sky130_fd_sc_hd__tapvpwrvgnd_1_234
*501 sky130_ef_sc_hd__decap_12_17
*502 sky130_fd_sc_hd__buf_8_122
*503 sky130_fd_sc_hd__buf_8_123
*504 sky130_fd_sc_hd__tapvpwrvgnd_1_132
*505 sky130_fd_sc_hd__tapvpwrvgnd_1_133
*506 sky130_fd_sc_hd__tapvpwrvgnd_1_233
*507 sky130_ef_sc_hd__decap_12_19
*508 sky130_fd_sc_hd__buf_8_124
*509 sky130_fd_sc_hd__buf_8_126
*510 sky130_fd_sc_hd__tapvpwrvgnd_1_134
*511 sky130_fd_sc_hd__tapvpwrvgnd_1_137
*512 sky130_fd_sc_hd__tapvpwrvgnd_1_236
*513 sky130_ef_sc_hd__decap_12_20
*514 sky130_fd_sc_hd__buf_8_125
*515 sky130_fd_sc_hd__buf_8_127
*516 sky130_fd_sc_hd__tapvpwrvgnd_1_135
*517 sky130_fd_sc_hd__tapvpwrvgnd_1_138
*518 sky130_fd_sc_hd__tapvpwrvgnd_1_235
*519 sky130_fd_sc_hd__tapvpwrvgnd_1_136
*520 sky130_fd_sc_hd__tapvpwrvgnd_1_139
*521 sky130_fd_sc_hd__tapvpwrvgnd_1_237
*522 sky130_fd_sc_hd__buf_8_128
*523 sky130_fd_sc_hd__buf_8_129
*524 sky130_fd_sc_hd__tapvpwrvgnd_1_140
*525 sky130_fd_sc_hd__tapvpwrvgnd_1_309
*526 sky130_ef_sc_hd__decap_12_57
*527 sky130_fd_sc_hd__tapvpwrvgnd_1_141
*528 sky130_fd_sc_hd__buf_8_130
*529 sky130_fd_sc_hd__buf_8_131
*530 sky130_fd_sc_hd__tapvpwrvgnd_1_142
*531 sky130_fd_sc_hd__tapvpwrvgnd_1_143
*532 sky130_ef_sc_hd__decap_12_56
*533 sky130_fd_sc_hd__tapvpwrvgnd_1_310
*534 sky130_fd_sc_hd__buf_8_132
*535 sky130_fd_sc_hd__buf_8_133
*536 sky130_fd_sc_hd__tapvpwrvgnd_1_144
*537 sky130_fd_sc_hd__tapvpwrvgnd_1_145
*538 sky130_ef_sc_hd__decap_12_44
*539 sky130_fd_sc_hd__tapvpwrvgnd_1_312
*540 sky130_fd_sc_hd__buf_8_138
*541 sky130_fd_sc_hd__buf_8_139
*542 sky130_fd_sc_hd__tapvpwrvgnd_1_150
*543 sky130_fd_sc_hd__tapvpwrvgnd_1_151
*544 sky130_ef_sc_hd__decap_12_46
*545 sky130_fd_sc_hd__tapvpwrvgnd_1_311
*546 sky130_fd_sc_hd__buf_8_136
*547 sky130_fd_sc_hd__buf_8_137
*548 sky130_fd_sc_hd__tapvpwrvgnd_1_148
*549 sky130_fd_sc_hd__tapvpwrvgnd_1_149
*550 sky130_ef_sc_hd__decap_12_45
*551 sky130_fd_sc_hd__tapvpwrvgnd_1_313
*552 sky130_fd_sc_hd__buf_8_134
*553 sky130_fd_sc_hd__buf_8_135
*554 sky130_fd_sc_hd__tapvpwrvgnd_1_146
*555 sky130_fd_sc_hd__tapvpwrvgnd_1_147
*556 sky130_ef_sc_hd__decap_12_47
*557 sky130_fd_sc_hd__tapvpwrvgnd_1_314
*558 sky130_fd_sc_hd__buf_8_142
*559 sky130_fd_sc_hd__buf_8_143
*560 sky130_fd_sc_hd__tapvpwrvgnd_1_154
*561 sky130_fd_sc_hd__tapvpwrvgnd_1_155
*562 sky130_ef_sc_hd__decap_12_49
*563 sky130_fd_sc_hd__tapvpwrvgnd_1_316
*564 sky130_fd_sc_hd__buf_8_140
*565 sky130_fd_sc_hd__buf_8_141
*566 sky130_fd_sc_hd__tapvpwrvgnd_1_152
*567 sky130_fd_sc_hd__tapvpwrvgnd_1_153
*568 sky130_ef_sc_hd__decap_12_48
*569 sky130_fd_sc_hd__tapvpwrvgnd_1_315
*570 sky130_fd_sc_hd__buf_8_148
*571 sky130_fd_sc_hd__buf_8_149
*572 sky130_fd_sc_hd__tapvpwrvgnd_1_160
*573 sky130_fd_sc_hd__tapvpwrvgnd_1_161
*574 sky130_ef_sc_hd__decap_12_50
*575 sky130_fd_sc_hd__tapvpwrvgnd_1_317
*576 sky130_fd_sc_hd__buf_8_146
*577 sky130_fd_sc_hd__buf_8_147
*578 sky130_fd_sc_hd__tapvpwrvgnd_1_158
*579 sky130_fd_sc_hd__tapvpwrvgnd_1_159
*580 sky130_ef_sc_hd__decap_12_51
*581 sky130_fd_sc_hd__tapvpwrvgnd_1_318
*582 sky130_fd_sc_hd__buf_8_144
*583 sky130_fd_sc_hd__buf_8_145
*584 sky130_fd_sc_hd__tapvpwrvgnd_1_156
*585 sky130_fd_sc_hd__tapvpwrvgnd_1_157
*586 sky130_ef_sc_hd__decap_12_53
*587 sky130_fd_sc_hd__tapvpwrvgnd_1_320
*588 sky130_fd_sc_hd__buf_8_154
*589 sky130_fd_sc_hd__buf_8_155
*590 sky130_fd_sc_hd__tapvpwrvgnd_1_166
*591 sky130_fd_sc_hd__tapvpwrvgnd_1_167
*592 sky130_ef_sc_hd__decap_12_52
*593 sky130_fd_sc_hd__tapvpwrvgnd_1_319
*594 sky130_fd_sc_hd__buf_8_152
*595 sky130_fd_sc_hd__buf_8_153
*596 sky130_fd_sc_hd__tapvpwrvgnd_1_164
*597 sky130_fd_sc_hd__tapvpwrvgnd_1_165
*598 sky130_ef_sc_hd__decap_12_100
*599 sky130_fd_sc_hd__tapvpwrvgnd_1_162
*600 sky130_fd_sc_hd__buf_8_0
*601 sky130_fd_sc_hd__buf_8_151
*602 sky130_fd_sc_hd__tapvpwrvgnd_1_163
*603 sky130_fd_sc_hd__tapvpwrvgnd_1_323
*604 sky130_ef_sc_hd__decap_12_54
*605 sky130_fd_sc_hd__tapvpwrvgnd_1_321
*606 sky130_fd_sc_hd__buf_8_156
*607 sky130_fd_sc_hd__buf_8_157
*608 sky130_fd_sc_hd__tapvpwrvgnd_1_170
*609 sky130_fd_sc_hd__tapvpwrvgnd_1_171
*610 sky130_ef_sc_hd__decap_12_55
*611 sky130_fd_sc_hd__tapvpwrvgnd_1_322
*612 sky130_fd_sc_hd__tapvpwrvgnd_1_168
*613 sky130_fd_sc_hd__tapvpwrvgnd_1_169
*614 sky130_fd_sc_hd__tapvpwrvgnd_1_324
*615 sky130_ef_sc_hd__decap_12_98
*616 sky130_fd_sc_hd__buf_8_12
*617 sky130_fd_sc_hd__buf_8_13
*618 sky130_fd_sc_hd__tapvpwrvgnd_1_53
*619 sky130_fd_sc_hd__tapvpwrvgnd_1_261
*620 sky130_fd_sc_hd__tapvpwrvgnd_1_262
*621 sky130_ef_sc_hd__decap_12_99
*622 sky130_fd_sc_hd__tapvpwrvgnd_1_52
*623 sky130_fd_sc_hd__buf_8_46
*624 sky130_fd_sc_hd__tapvpwrvgnd_1_55
*625 sky130_fd_sc_hd__buf_8_47
*626 sky130_fd_sc_hd__tapvpwrvgnd_1_54
*627 sky130_ef_sc_hd__decap_12_96
*628 sky130_fd_sc_hd__tapvpwrvgnd_1_264
*629 sky130_fd_sc_hd__buf_8_49
*630 sky130_fd_sc_hd__tapvpwrvgnd_1_57
*631 sky130_fd_sc_hd__buf_8_48
*632 sky130_fd_sc_hd__tapvpwrvgnd_1_56
*633 sky130_ef_sc_hd__decap_12_97
*634 sky130_fd_sc_hd__tapvpwrvgnd_1_263
*635 sky130_fd_sc_hd__buf_8_51
*636 sky130_fd_sc_hd__tapvpwrvgnd_1_59
*637 sky130_fd_sc_hd__buf_8_50
*638 sky130_fd_sc_hd__tapvpwrvgnd_1_58
*639 sky130_fd_sc_hd__tapvpwrvgnd_1_265
*640 sky130_fd_sc_hd__tapvpwrvgnd_1_61
*641 sky130_fd_sc_hd__tapvpwrvgnd_1_60
*642 sky130_ef_sc_hd__decap_12_95
*643 sky130_fd_sc_hd__tapvpwrvgnd_1_267
*644 sky130_fd_sc_hd__buf_8_53
*645 sky130_fd_sc_hd__tapvpwrvgnd_1_63
*646 sky130_fd_sc_hd__buf_8_52
*647 sky130_fd_sc_hd__tapvpwrvgnd_1_62
*648 sky130_ef_sc_hd__decap_12_93
*649 sky130_fd_sc_hd__tapvpwrvgnd_1_266
*650 sky130_fd_sc_hd__buf_8_34
*651 sky130_fd_sc_hd__tapvpwrvgnd_1_38
*652 sky130_fd_sc_hd__buf_8_35
*653 sky130_fd_sc_hd__tapvpwrvgnd_1_39
*654 sky130_ef_sc_hd__decap_12_94
*655 sky130_fd_sc_hd__tapvpwrvgnd_1_269
*656 sky130_fd_sc_hd__buf_8_36
*657 sky130_fd_sc_hd__tapvpwrvgnd_1_16
*658 sky130_fd_sc_hd__buf_8_37
*659 sky130_fd_sc_hd__tapvpwrvgnd_1_17
*660 sky130_ef_sc_hd__decap_12_91
*661 sky130_fd_sc_hd__buf_8_14
*662 sky130_fd_sc_hd__buf_8_15
*663 sky130_ef_sc_hd__decap_12_92
*664 sky130_fd_sc_hd__buf_8_18
*665 sky130_fd_sc_hd__buf_8_19
*666 sky130_fd_sc_hd__tapvpwrvgnd_1_20
*667 sky130_fd_sc_hd__tapvpwrvgnd_1_21
*668 sky130_fd_sc_hd__tapvpwrvgnd_1_268
*669 sky130_ef_sc_hd__decap_12_89
*670 sky130_fd_sc_hd__buf_8_20
*671 sky130_fd_sc_hd__buf_8_21
*672 sky130_fd_sc_hd__tapvpwrvgnd_1_22
*673 sky130_fd_sc_hd__tapvpwrvgnd_1_23
*674 sky130_fd_sc_hd__tapvpwrvgnd_1_271
*675 sky130_ef_sc_hd__decap_12_90
*676 sky130_fd_sc_hd__buf_8_16
*677 sky130_fd_sc_hd__buf_8_17
*678 sky130_fd_sc_hd__tapvpwrvgnd_1_18
*679 sky130_fd_sc_hd__tapvpwrvgnd_1_19
*680 sky130_fd_sc_hd__tapvpwrvgnd_1_270
*681 sky130_ef_sc_hd__decap_12_88
*682 sky130_fd_sc_hd__buf_8_22
*683 sky130_fd_sc_hd__buf_8_23
*684 sky130_fd_sc_hd__tapvpwrvgnd_1_24
*685 sky130_fd_sc_hd__tapvpwrvgnd_1_25
*686 sky130_fd_sc_hd__tapvpwrvgnd_1_325
*687 sky130_fd_sc_hd__tapvpwrvgnd_1_26
*688 sky130_fd_sc_hd__tapvpwrvgnd_1_27
*689 sky130_fd_sc_hd__tapvpwrvgnd_1_273
*690 sky130_ef_sc_hd__decap_12_68
*691 sky130_fd_sc_hd__buf_8_178
*692 sky130_fd_sc_hd__buf_8_179
*693 sky130_fd_sc_hd__tapvpwrvgnd_1_194
*694 sky130_fd_sc_hd__tapvpwrvgnd_1_195
*695 sky130_fd_sc_hd__tapvpwrvgnd_1_297
*696 sky130_ef_sc_hd__decap_12_67
*697 sky130_fd_sc_hd__buf_8_176
*698 sky130_fd_sc_hd__buf_8_177
*699 sky130_fd_sc_hd__tapvpwrvgnd_1_190
*700 sky130_fd_sc_hd__tapvpwrvgnd_1_192
*701 sky130_fd_sc_hd__tapvpwrvgnd_1_299
*702 sky130_ef_sc_hd__decap_12_65
*703 sky130_fd_sc_hd__buf_8_174
*704 sky130_fd_sc_hd__buf_8_175
*705 sky130_fd_sc_hd__tapvpwrvgnd_1_191
*706 sky130_fd_sc_hd__tapvpwrvgnd_1_193
*707 sky130_fd_sc_hd__tapvpwrvgnd_1_298
*708 sky130_ef_sc_hd__decap_12_66
*709 sky130_fd_sc_hd__buf_8_172
*710 sky130_fd_sc_hd__buf_8_173
*711 sky130_fd_sc_hd__tapvpwrvgnd_1_188
*712 sky130_fd_sc_hd__tapvpwrvgnd_1_189
*713 sky130_fd_sc_hd__tapvpwrvgnd_1_300
*714 sky130_ef_sc_hd__decap_12_63
*715 sky130_fd_sc_hd__buf_8_170
*716 sky130_fd_sc_hd__buf_8_171
*717 sky130_fd_sc_hd__tapvpwrvgnd_1_186
*718 sky130_fd_sc_hd__tapvpwrvgnd_1_187
*719 sky130_fd_sc_hd__tapvpwrvgnd_1_302
*720 sky130_ef_sc_hd__decap_12_64
*721 sky130_fd_sc_hd__buf_8_168
*722 sky130_fd_sc_hd__buf_8_169
*723 sky130_fd_sc_hd__tapvpwrvgnd_1_184
*724 sky130_fd_sc_hd__tapvpwrvgnd_1_185
*725 sky130_fd_sc_hd__tapvpwrvgnd_1_301
*726 sky130_ef_sc_hd__decap_12_61
*727 sky130_fd_sc_hd__buf_8_166
*728 sky130_fd_sc_hd__buf_8_167
*729 sky130_fd_sc_hd__tapvpwrvgnd_1_182
*730 sky130_fd_sc_hd__tapvpwrvgnd_1_183
*731 sky130_fd_sc_hd__tapvpwrvgnd_1_304
*732 sky130_ef_sc_hd__decap_12_62
*733 sky130_fd_sc_hd__buf_8_164
*734 sky130_fd_sc_hd__buf_8_165
*735 sky130_fd_sc_hd__tapvpwrvgnd_1_180
*736 sky130_fd_sc_hd__tapvpwrvgnd_1_181
*737 sky130_fd_sc_hd__tapvpwrvgnd_1_303
*738 sky130_ef_sc_hd__decap_12_59
*739 sky130_fd_sc_hd__buf_8_162
*740 sky130_fd_sc_hd__buf_8_163
*741 sky130_fd_sc_hd__tapvpwrvgnd_1_178
*742 sky130_fd_sc_hd__tapvpwrvgnd_1_179
*743 sky130_fd_sc_hd__tapvpwrvgnd_1_306
*744 sky130_ef_sc_hd__decap_12_60
*745 sky130_fd_sc_hd__buf_8_160
*746 sky130_fd_sc_hd__buf_8_161
*747 sky130_fd_sc_hd__tapvpwrvgnd_1_176
*748 sky130_fd_sc_hd__tapvpwrvgnd_1_177
*749 sky130_fd_sc_hd__tapvpwrvgnd_1_305
*750 sky130_ef_sc_hd__decap_12_58
*751 sky130_fd_sc_hd__buf_8_158
*752 sky130_fd_sc_hd__buf_8_159
*753 sky130_fd_sc_hd__tapvpwrvgnd_1_174
*754 sky130_fd_sc_hd__tapvpwrvgnd_1_175
*755 sky130_fd_sc_hd__tapvpwrvgnd_1_308
*756 sky130_fd_sc_hd__tapvpwrvgnd_1_172
*757 sky130_fd_sc_hd__tapvpwrvgnd_1_173
*758 sky130_fd_sc_hd__tapvpwrvgnd_1_307
*759 sky130_fd_sc_hd__tapvpwrvgnd_1_28
*760 sky130_fd_sc_hd__tapvpwrvgnd_1_274
*761 sky130_fd_sc_hd__tapvpwrvgnd_1_272
*762 sky130_ef_sc_hd__decap_12_86
*763 sky130_fd_sc_hd__buf_8_25
*764 sky130_fd_sc_hd__tapvpwrvgnd_1_29
*765 sky130_fd_sc_hd__tapvpwrvgnd_1_275
*766 sky130_fd_sc_hd__buf_8_24
*767 sky130_fd_sc_hd__tapvpwrvgnd_1_1
*768 sky130_ef_sc_hd__decap_12_85
*769 sky130_fd_sc_hd__buf_8_26
*770 sky130_fd_sc_hd__buf_8_27
*771 sky130_ef_sc_hd__decap_12_87
*772 sky130_fd_sc_hd__buf_8_28
*773 sky130_fd_sc_hd__tapvpwrvgnd_1_0
*774 sky130_fd_sc_hd__tapvpwrvgnd_1_30
*775 sky130_fd_sc_hd__buf_8_29
*776 sky130_fd_sc_hd__tapvpwrvgnd_1_31
*777 sky130_ef_sc_hd__decap_12_83
*778 sky130_fd_sc_hd__buf_8_30
*779 sky130_fd_sc_hd__tapvpwrvgnd_1_32
*780 sky130_fd_sc_hd__tapvpwrvgnd_1_277
*781 sky130_fd_sc_hd__buf_8_31
*782 sky130_fd_sc_hd__tapvpwrvgnd_1_33
*783 sky130_ef_sc_hd__decap_12_82
*784 sky130_fd_sc_hd__buf_8_41
*785 sky130_fd_sc_hd__tapvpwrvgnd_1_34
*786 sky130_fd_sc_hd__tapvpwrvgnd_1_278
*787 sky130_fd_sc_hd__buf_8_40
*788 sky130_fd_sc_hd__tapvpwrvgnd_1_35
*789 sky130_ef_sc_hd__decap_12_84
*790 sky130_fd_sc_hd__buf_8_32
*791 sky130_fd_sc_hd__tapvpwrvgnd_1_45
*792 sky130_fd_sc_hd__tapvpwrvgnd_1_276
*793 sky130_fd_sc_hd__buf_8_33
*794 sky130_fd_sc_hd__tapvpwrvgnd_1_44
*795 sky130_fd_sc_hd__tapvpwrvgnd_1_36
*796 sky130_fd_sc_hd__tapvpwrvgnd_1_279
*797 sky130_fd_sc_hd__tapvpwrvgnd_1_37
*798 sky130_fd_sc_hd__tapvpwrvgnd_1_200
*799 sky130_fd_sc_hd__tapvpwrvgnd_1_201
*800 sky130_fd_sc_hd__tapvpwrvgnd_1_291
*801 sky130_ef_sc_hd__decap_12_73
*802 sky130_fd_sc_hd__buf_8_185
*803 sky130_fd_sc_hd__buf_8_186
*804 sky130_fd_sc_hd__tapvpwrvgnd_1_202
*805 sky130_fd_sc_hd__tapvpwrvgnd_1_203
*806 sky130_fd_sc_hd__tapvpwrvgnd_1_292
*807 sky130_ef_sc_hd__decap_12_72
*808 sky130_fd_sc_hd__buf_8_187
*809 sky130_fd_sc_hd__buf_8_188
*810 sky130_fd_sc_hd__tapvpwrvgnd_1_204
*811 sky130_fd_sc_hd__tapvpwrvgnd_1_205
*812 sky130_fd_sc_hd__tapvpwrvgnd_1_293
*813 sky130_ef_sc_hd__decap_12_71
*814 sky130_fd_sc_hd__buf_8_189
*815 sky130_fd_sc_hd__buf_8_190
*816 sky130_fd_sc_hd__tapvpwrvgnd_1_206
*817 sky130_fd_sc_hd__tapvpwrvgnd_1_207
*818 sky130_fd_sc_hd__tapvpwrvgnd_1_294
*819 sky130_ef_sc_hd__decap_12_70
*820 sky130_fd_sc_hd__buf_8_181
*821 sky130_fd_sc_hd__buf_8_182
*822 sky130_fd_sc_hd__tapvpwrvgnd_1_196
*823 sky130_fd_sc_hd__tapvpwrvgnd_1_197
*824 sky130_fd_sc_hd__tapvpwrvgnd_1_296
*825 sky130_ef_sc_hd__decap_12_69
*826 sky130_fd_sc_hd__buf_8_183
*827 sky130_fd_sc_hd__buf_8_184
*828 sky130_fd_sc_hd__tapvpwrvgnd_1_198
*829 sky130_fd_sc_hd__tapvpwrvgnd_1_199
*830 sky130_fd_sc_hd__tapvpwrvgnd_1_295
*831 sky130_ef_sc_hd__decap_12_75
*832 sky130_ef_sc_hd__decap_12_76
*833 sky130_fd_sc_hd__tapvpwrvgnd_1_51
*834 sky130_fd_sc_hd__tapvpwrvgnd_1_288
*835 sky130_ef_sc_hd__decap_12_74
*836 sky130_fd_sc_hd__tapvpwrvgnd_1_289
*837 sky130_fd_sc_hd__tapvpwrvgnd_1_290
*838 sky130_fd_sc_hd__buf_8_38
*839 sky130_fd_sc_hd__buf_8_39
*840 sky130_fd_sc_hd__buf_8_44
*841 sky130_fd_sc_hd__buf_8_45
*842 sky130_fd_sc_hd__tapvpwrvgnd_1_48
*843 sky130_fd_sc_hd__tapvpwrvgnd_1_49
*844 sky130_fd_sc_hd__tapvpwrvgnd_1_50
*845 sky130_fd_sc_hd__tapvpwrvgnd_1_287
*846 sky130_fd_sc_hd__buf_8_42
*847 sky130_fd_sc_hd__buf_8_43
*848 sky130_fd_sc_hd__tapvpwrvgnd_1_42
*849 sky130_fd_sc_hd__tapvpwrvgnd_1_43
*850 sky130_fd_sc_hd__tapvpwrvgnd_1_46
*851 sky130_fd_sc_hd__tapvpwrvgnd_1_47
*852 sky130_ef_sc_hd__decap_12_77
*853 sky130_fd_sc_hd__buf_8_10
*854 sky130_fd_sc_hd__buf_8_11
*855 sky130_fd_sc_hd__tapvpwrvgnd_1_14
*856 sky130_fd_sc_hd__tapvpwrvgnd_1_15
*857 sky130_fd_sc_hd__tapvpwrvgnd_1_40
*858 sky130_fd_sc_hd__tapvpwrvgnd_1_41
*859 sky130_fd_sc_hd__tapvpwrvgnd_1_285
*860 sky130_fd_sc_hd__tapvpwrvgnd_1_286
*861 sky130_ef_sc_hd__decap_12_81
*862 sky130_fd_sc_hd__buf_8_180
*863 sky130_fd_sc_hd__buf_8_194
*864 sky130_fd_sc_hd__tapvpwrvgnd_1_208
*865 sky130_fd_sc_hd__tapvpwrvgnd_1_212
*866 sky130_fd_sc_hd__tapvpwrvgnd_1_280
*867 sky130_ef_sc_hd__decap_12_78
*868 sky130_ef_sc_hd__decap_12_80
*869 sky130_fd_sc_hd__tapvpwrvgnd_1_281
*870 sky130_fd_sc_hd__tapvpwrvgnd_1_283
*871 sky130_fd_sc_hd__buf_8_191
*872 sky130_fd_sc_hd__buf_8_192
*873 sky130_fd_sc_hd__buf_8_195