*SPEF "ieee 1481-1999"
*DESIGN "gpio_defaults_block"
*DATE "11:11:11 Fri 11 11, 1111"
*VENDOR "OpenRCX"
*PROGRAM "Parallel Extraction"
*VERSION "1.0"
*DESIGN_FLOW "NAME_SCOPE LOCAL" "PIN_CAP NONE"
*DIVIDER /
*DELIMITER :
*BUS_DELIMITER []
*T_UNIT 1 NS
*C_UNIT 1 PF
*R_UNIT 1 OHM
*L_UNIT 1 HENRY

*NAME_MAP
*3 gpio_defaults_low\[0\]
*4 gpio_defaults_high\[10\]
*5 gpio_defaults_low\[11\]
*6 gpio_defaults_low\[12\]
*7 gpio_defaults_high\[1\]
*8 gpio_defaults_low\[2\]
*9 gpio_defaults_low\[3\]
*10 gpio_defaults_low\[4\]
*11 gpio_defaults_low\[5\]
*12 gpio_defaults_low\[6\]
*13 gpio_defaults_low\[7\]
*14 gpio_defaults_low\[8\]
*15 gpio_defaults_low\[9\]
*16 gpio_defaults_high\[0\]
*17 gpio_defaults_high\[11\]
*18 gpio_defaults_high\[12\]
*19 gpio_defaults_high\[2\]
*20 gpio_defaults_high\[3\]
*21 gpio_defaults_high\[4\]
*22 gpio_defaults_high\[5\]
*23 gpio_defaults_high\[6\]
*24 gpio_defaults_high\[7\]
*25 gpio_defaults_high\[8\]
*26 gpio_defaults_high\[9\]
*27 gpio_defaults_low\[10\]
*28 gpio_defaults_low\[1\]
*29 FILLER_0_15
*30 FILLER_0_18
*31 FILLER_0_26
*32 FILLER_0_3
*33 FILLER_0_8
*34 FILLER_1_15
*35 FILLER_1_22
*36 FILLER_1_26
*37 FILLER_1_3
*38 FILLER_1_8
*39 FILLER_2_14
*40 FILLER_2_18
*41 FILLER_2_23
*42 FILLER_2_3
*43 FILLER_3_12
*44 FILLER_3_19
*45 FILLER_3_3
*46 FILLER_4_14
*47 FILLER_4_18
*48 FILLER_4_23
*49 FILLER_4_3
*50 FILLER_5_15
*51 FILLER_5_18
*52 FILLER_5_26
*53 FILLER_5_3
*54 FILLER_5_8
*55 PHY_0
*56 PHY_1
*57 PHY_10
*58 PHY_11
*59 PHY_2
*60 PHY_3
*61 PHY_4
*62 PHY_5
*63 PHY_6
*64 PHY_7
*65 PHY_8
*66 PHY_9
*67 TAP_12
*68 TAP_13
*69 TAP_14
*70 TAP_15
*71 gpio_default_value\[0\]
*72 gpio_default_value\[10\]
*73 gpio_default_value\[11\]
*74 gpio_default_value\[12\]
*75 gpio_default_value\[1\]
*76 gpio_default_value\[2\]
*77 gpio_default_value\[3\]
*78 gpio_default_value\[4\]
*79 gpio_default_value\[5\]
*80 gpio_default_value\[6\]
*81 gpio_default_value\[7\]
*82 gpio_default_value\[8\]
*83 gpio_default_value\[9\]

*PORTS
gpio_defaults[0] O
gpio_defaults[10] O
gpio_defaults[11] O
gpio_defaults[12] O
gpio_defaults[1] O
gpio_defaults[2] O
gpio_defaults[3] O
gpio_defaults[4] O
gpio_defaults[5] O
gpio_defaults[6] O
gpio_defaults[7] O
gpio_defaults[8] O
gpio_defaults[9] O

*D_NET *3 0.00195951
*CONN
*P gpio_defaults[0] O
*I *71:LO O *D sky130_fd_sc_hd__conb_1
*CAP
1 gpio_defaults[0] 0.000719349
2 *71:LO 0.000233338
3 *3:7 0.000952687
4 gpio_defaults[0] gpio_defaults[1] 0
5 *3:7 *13:8 5.41385e-05
*RES
1 *71:LO *3:7 41.48 
2 *3:7 gpio_defaults[0] 11.4343 
*END

*D_NET *4 0.00103032
*CONN
*P gpio_defaults[10] O
*I *72:HI O *D sky130_fd_sc_hd__conb_1
*CAP
1 gpio_defaults[10] 0.000404396
2 *72:HI 0.000404396
3 gpio_defaults[10] gpio_defaults[1] 2.26406e-05
4 gpio_defaults[10] gpio_defaults[8] 2.03288e-05
5 gpio_defaults[10] gpio_defaults[9] 0.000178562
*RES
1 *72:HI gpio_defaults[10] 48.7391 
*END

*D_NET *5 0.00230404
*CONN
*P gpio_defaults[11] O
*I *73:LO O *D sky130_fd_sc_hd__conb_1
*CAP
1 gpio_defaults[11] 0.000385601
2 *73:LO 0.000490162
3 *5:7 0.000875763
4 gpio_defaults[11] gpio_defaults[12] 0
5 gpio_defaults[11] *8:8 0.000232039
6 *5:7 gpio_defaults[12] 0.000185434
7 *5:7 *8:8 0.000135037
*RES
1 *73:LO *5:7 46.7207 
2 *5:7 gpio_defaults[11] 8.03714 
*END

*D_NET *6 0.00129732
*CONN
*P gpio_defaults[12] O
*I *74:LO O *D sky130_fd_sc_hd__conb_1
*CAP
1 gpio_defaults[12] 0.000520485
2 *74:LO 0.000520485
3 gpio_defaults[12] gpio_defaults[3] 4.82745e-05
4 gpio_defaults[12] gpio_defaults[4] 2.26406e-05
5 gpio_defaults[11] gpio_defaults[12] 0
6 *5:7 gpio_defaults[12] 0.000185434
*RES
1 *74:LO gpio_defaults[12] 47.2593 
*END

*D_NET *7 0.00123818
*CONN
*P gpio_defaults[1] O
*I *75:HI O *D sky130_fd_sc_hd__conb_1
*CAP
1 gpio_defaults[1] 0.00057157
2 *75:HI 0.00057157
3 gpio_defaults[1] gpio_defaults[9] 2.11157e-05
4 gpio_defaults[1] *14:8 5.12805e-05
5 gpio_defaults[0] gpio_defaults[1] 0
6 gpio_defaults[10] gpio_defaults[1] 2.26406e-05
*RES
1 *75:HI gpio_defaults[1] 48.4814 
*END

*D_NET *8 0.00147258
*CONN
*P gpio_defaults[2] O
*I *76:LO O *D sky130_fd_sc_hd__conb_1
*CAP
1 gpio_defaults[2] 0.000180792
2 *76:LO 0.000299488
3 *8:8 0.00048028
4 gpio_defaults[2] gpio_defaults[3] 0.000144949
5 gpio_defaults[11] *8:8 0.000232039
6 *5:7 *8:8 0.000135037
*RES
1 *76:LO *8:8 42.7125 
2 *8:8 gpio_defaults[2] 8.7392 
*END

*D_NET *9 0.000988283
*CONN
*P gpio_defaults[3] O
*I *77:LO O *D sky130_fd_sc_hd__conb_1
*CAP
1 gpio_defaults[3] 0.0003103
2 *77:LO 0.0003103
3 gpio_defaults[3] gpio_defaults[4] 0.000174461
4 gpio_defaults[12] gpio_defaults[3] 4.82745e-05
5 gpio_defaults[2] gpio_defaults[3] 0.000144949
*RES
1 *77:LO gpio_defaults[3] 48.4431 
*END

*D_NET *10 0.00113837
*CONN
*P gpio_defaults[4] O
*I *78:LO O *D sky130_fd_sc_hd__conb_1
*CAP
1 gpio_defaults[4] 0.000470634
2 *78:LO 0.000470634
3 gpio_defaults[12] gpio_defaults[4] 2.26406e-05
4 gpio_defaults[3] gpio_defaults[4] 0.000174461
*RES
1 *78:LO gpio_defaults[4] 48.7391 
*END

*D_NET *11 0.00137603
*CONN
*P gpio_defaults[5] O
*I *79:LO O *D sky130_fd_sc_hd__conb_1
*CAP
1 gpio_defaults[5] 0.000225343
2 *79:LO 0.000336366
3 *11:8 0.000561709
4 gpio_defaults[5] gpio_defaults[6] 0.000211931
5 *11:8 gpio_defaults[6] 4.06849e-05
*RES
1 *79:LO *11:8 44.1832 
2 *11:8 gpio_defaults[5] 8.75787 
*END

*D_NET *12 0.000976856
*CONN
*P gpio_defaults[6] O
*I *80:LO O *D sky130_fd_sc_hd__conb_1
*CAP
1 gpio_defaults[6] 0.00026909
2 *80:LO 0.00026909
3 gpio_defaults[6] gpio_defaults[7] 0.000186061
4 gpio_defaults[5] gpio_defaults[6] 0.000211931
5 *11:8 gpio_defaults[6] 4.06849e-05
*RES
1 *80:LO gpio_defaults[6] 48.2627 
*END

*D_NET *13 0.00121968
*CONN
*P gpio_defaults[7] O
*I *81:LO O *D sky130_fd_sc_hd__conb_1
*CAP
1 gpio_defaults[7] 0.000208243
2 *81:LO 0.000281496
3 *13:8 0.00048974
4 gpio_defaults[6] gpio_defaults[7] 0.000186061
5 *3:7 *13:8 5.41385e-05
*RES
1 *81:LO *13:8 42.7539 
2 *13:8 gpio_defaults[7] 8.672 
*END

*D_NET *14 0.00172323
*CONN
*P gpio_defaults[8] O
*I *82:LO O *D sky130_fd_sc_hd__conb_1
*CAP
1 gpio_defaults[8] 0.000313262
2 *82:LO 0.000421568
3 *14:8 0.000734829
4 gpio_defaults[8] gpio_defaults[9] 0.000181959
5 gpio_defaults[10] gpio_defaults[8] 2.03288e-05
6 gpio_defaults[1] *14:8 5.12805e-05
*RES
1 *82:LO *14:8 43.7068 
2 *14:8 gpio_defaults[8] 8.84373 
*END

*D_NET *15 0.000893732
*CONN
*P gpio_defaults[9] O
*I *83:LO O *D sky130_fd_sc_hd__conb_1
*CAP
1 gpio_defaults[9] 0.000256047
2 *83:LO 0.000256047
3 gpio_defaults[10] gpio_defaults[9] 0.000178562
4 gpio_defaults[1] gpio_defaults[9] 2.11157e-05
5 gpio_defaults[8] gpio_defaults[9] 0.000181959
*RES
1 *83:LO gpio_defaults[9] 48.0909 
*END
