*SPEF "ieee 1481-1999"
*DESIGN "gpio_defaults_block"
*DATE "11:11:11 Fri 11 11, 1111"
*VENDOR "OpenRCX"
*PROGRAM "Parallel Extraction"
*VERSION "1.0"
*DESIGN_FLOW "NAME_SCOPE LOCAL" "PIN_CAP NONE"
*DIVIDER /
*DELIMITER :
*BUS_DELIMITER []
*T_UNIT 1 NS
*C_UNIT 1 PF
*R_UNIT 1 OHM
*L_UNIT 1 HENRY

*NAME_MAP
*3 gpio_defaults_low\[0\]
*4 gpio_defaults_high\[10\]
*5 gpio_defaults_low\[11\]
*6 gpio_defaults_low\[12\]
*7 gpio_defaults_high\[1\]
*8 gpio_defaults_low\[2\]
*9 gpio_defaults_low\[3\]
*10 gpio_defaults_low\[4\]
*11 gpio_defaults_low\[5\]
*12 gpio_defaults_low\[6\]
*13 gpio_defaults_low\[7\]
*14 gpio_defaults_low\[8\]
*15 gpio_defaults_low\[9\]
*16 gpio_defaults_high\[0\]
*17 gpio_defaults_high\[11\]
*18 gpio_defaults_high\[12\]
*19 gpio_defaults_high\[2\]
*20 gpio_defaults_high\[3\]
*21 gpio_defaults_high\[4\]
*22 gpio_defaults_high\[5\]
*23 gpio_defaults_high\[6\]
*24 gpio_defaults_high\[7\]
*25 gpio_defaults_high\[8\]
*26 gpio_defaults_high\[9\]
*27 gpio_defaults_low\[10\]
*28 gpio_defaults_low\[1\]
*29 FILLER_0_15
*30 FILLER_0_18
*31 FILLER_0_26
*32 FILLER_0_3
*33 FILLER_0_8
*34 FILLER_1_15
*35 FILLER_1_22
*36 FILLER_1_26
*37 FILLER_1_3
*38 FILLER_1_8
*39 FILLER_2_14
*40 FILLER_2_18
*41 FILLER_2_23
*42 FILLER_2_3
*43 FILLER_3_12
*44 FILLER_3_19
*45 FILLER_3_3
*46 FILLER_4_14
*47 FILLER_4_18
*48 FILLER_4_23
*49 FILLER_4_3
*50 FILLER_5_15
*51 FILLER_5_18
*52 FILLER_5_26
*53 FILLER_5_3
*54 FILLER_5_8
*55 PHY_0
*56 PHY_1
*57 PHY_10
*58 PHY_11
*59 PHY_2
*60 PHY_3
*61 PHY_4
*62 PHY_5
*63 PHY_6
*64 PHY_7
*65 PHY_8
*66 PHY_9
*67 TAP_12
*68 TAP_13
*69 TAP_14
*70 TAP_15
*71 gpio_default_value\[0\]
*72 gpio_default_value\[10\]
*73 gpio_default_value\[11\]
*74 gpio_default_value\[12\]
*75 gpio_default_value\[1\]
*76 gpio_default_value\[2\]
*77 gpio_default_value\[3\]
*78 gpio_default_value\[4\]
*79 gpio_default_value\[5\]
*80 gpio_default_value\[6\]
*81 gpio_default_value\[7\]
*82 gpio_default_value\[8\]
*83 gpio_default_value\[9\]

*PORTS
gpio_defaults[0] O
gpio_defaults[10] O
gpio_defaults[11] O
gpio_defaults[12] O
gpio_defaults[1] O
gpio_defaults[2] O
gpio_defaults[3] O
gpio_defaults[4] O
gpio_defaults[5] O
gpio_defaults[6] O
gpio_defaults[7] O
gpio_defaults[8] O
gpio_defaults[9] O

*D_NET *3 0.00159118
*CONN
*P gpio_defaults[0] O
*I *71:LO O *D sky130_fd_sc_hd__conb_1
*CAP
1 gpio_defaults[0] 0.000770314
2 *71:LO 0.000770314
3 gpio_defaults[0] gpio_defaults[1] 0
4 gpio_defaults[0] gpio_defaults[7] 5.05521e-05
*RES
1 *71:LO gpio_defaults[0] 14.4 
*END

*D_NET *4 0.000847028
*CONN
*P gpio_defaults[10] O
*I *72:HI O *D sky130_fd_sc_hd__conb_1
*CAP
1 gpio_defaults[10] 0.000323478
2 *72:HI 0.000323478
3 gpio_defaults[10] gpio_defaults[1] 1.88602e-05
4 gpio_defaults[10] gpio_defaults[8] 2.00119e-05
5 gpio_defaults[10] gpio_defaults[9] 0.0001612
*RES
1 *72:HI gpio_defaults[10] 6.04503 
*END

*D_NET *5 0.00191405
*CONN
*P gpio_defaults[11] O
*I *73:LO O *D sky130_fd_sc_hd__conb_1
*CAP
1 gpio_defaults[11] 0.000719722
2 *73:LO 0.000719722
3 gpio_defaults[11] gpio_defaults[12] 0.000163204
4 gpio_defaults[11] gpio_defaults[2] 0.000311402
*RES
1 *73:LO gpio_defaults[11] 15.735 
*END

*D_NET *6 0.00108432
*CONN
*P gpio_defaults[12] O
*I *74:LO O *D sky130_fd_sc_hd__conb_1
*CAP
1 gpio_defaults[12] 0.00043105
2 *74:LO 0.00043105
3 gpio_defaults[12] gpio_defaults[3] 4.01535e-05
4 gpio_defaults[12] gpio_defaults[4] 1.88602e-05
5 gpio_defaults[11] gpio_defaults[12] 0.000163204
*RES
1 *74:LO gpio_defaults[12] 10.305 
*END

*D_NET *7 0.00103457
*CONN
*P gpio_defaults[1] O
*I *75:HI O *D sky130_fd_sc_hd__conb_1
*CAP
1 gpio_defaults[1] 0.000476219
2 *75:HI 0.000476219
3 gpio_defaults[1] gpio_defaults[8] 4.53209e-05
4 gpio_defaults[1] gpio_defaults[9] 1.79536e-05
5 gpio_defaults[0] gpio_defaults[1] 0
6 gpio_defaults[10] gpio_defaults[1] 1.88602e-05
*RES
1 *75:HI gpio_defaults[1] 11.19 
*END

*D_NET *8 0.00119279
*CONN
*P gpio_defaults[2] O
*I *76:LO O *D sky130_fd_sc_hd__conb_1
*CAP
1 gpio_defaults[2] 0.000377732
2 *76:LO 0.000377732
3 gpio_defaults[2] gpio_defaults[3] 0.000125926
4 gpio_defaults[11] gpio_defaults[2] 0.000311402
*RES
1 *76:LO gpio_defaults[2] 8.0141 
*END

*D_NET *9 0.000788477
*CONN
*P gpio_defaults[3] O
*I *77:LO O *D sky130_fd_sc_hd__conb_1
*CAP
1 gpio_defaults[3] 0.000232552
2 *77:LO 0.000232552
3 gpio_defaults[3] gpio_defaults[4] 0.000157292
4 gpio_defaults[12] gpio_defaults[3] 4.01535e-05
5 gpio_defaults[2] gpio_defaults[3] 0.000125926
*RES
1 *77:LO gpio_defaults[3] 5.8385 
*END

*D_NET *10 0.000932583
*CONN
*P gpio_defaults[4] O
*I *78:LO O *D sky130_fd_sc_hd__conb_1
*CAP
1 gpio_defaults[4] 0.000378216
2 *78:LO 0.000378216
3 gpio_defaults[12] gpio_defaults[4] 1.88602e-05
4 gpio_defaults[3] gpio_defaults[4] 0.000157292
*RES
1 *78:LO gpio_defaults[4] 6.04503 
*END

*D_NET *11 0.00117953
*CONN
*P gpio_defaults[5] O
*I *79:LO O *D sky130_fd_sc_hd__conb_1
*CAP
1 gpio_defaults[5] 0.000475192
2 *79:LO 0.000475192
3 gpio_defaults[5] gpio_defaults[6] 0.000229142
*RES
1 *79:LO gpio_defaults[5] 9.09177 
*END

*D_NET *12 0.000825531
*CONN
*P gpio_defaults[6] O
*I *80:LO O *D sky130_fd_sc_hd__conb_1
*CAP
1 gpio_defaults[6] 0.000214023
2 *80:LO 0.000214023
3 gpio_defaults[6] gpio_defaults[7] 0.000168344
4 gpio_defaults[5] gpio_defaults[6] 0.000229142
*RES
1 *80:LO gpio_defaults[6] 5.70003 
*END

*D_NET *13 0.00104546
*CONN
*P gpio_defaults[7] O
*I *81:LO O *D sky130_fd_sc_hd__conb_1
*CAP
1 gpio_defaults[7] 0.000413283
2 *81:LO 0.000413283
3 gpio_defaults[0] gpio_defaults[7] 5.05521e-05
4 gpio_defaults[6] gpio_defaults[7] 0.000168344
*RES
1 *81:LO gpio_defaults[7] 7.9985 
*END

*D_NET *14 0.00145709
*CONN
*P gpio_defaults[8] O
*I *82:LO O *D sky130_fd_sc_hd__conb_1
*CAP
1 gpio_defaults[8] 0.000613662
2 *82:LO 0.000613662
3 gpio_defaults[8] gpio_defaults[9] 0.000164436
4 gpio_defaults[10] gpio_defaults[8] 2.00119e-05
5 gpio_defaults[1] gpio_defaults[8] 4.53209e-05
*RES
1 *82:LO gpio_defaults[8] 8.80503 
*END

*D_NET *15 0.000721853
*CONN
*P gpio_defaults[9] O
*I *83:LO O *D sky130_fd_sc_hd__conb_1
*CAP
1 gpio_defaults[9] 0.000189132
2 *83:LO 0.000189132
3 gpio_defaults[10] gpio_defaults[9] 0.0001612
4 gpio_defaults[1] gpio_defaults[9] 1.79536e-05
5 gpio_defaults[8] gpio_defaults[9] 0.000164436
*RES
1 *83:LO gpio_defaults[9] 5.5835 
*END
