*SPEF "ieee 1481-1999"
*DESIGN "gpio_defaults_block"
*DATE "11:11:11 Fri 11 11, 1111"
*VENDOR "OpenRCX"
*PROGRAM "Parallel Extraction"
*VERSION "1.0"
*DESIGN_FLOW "NAME_SCOPE LOCAL" "PIN_CAP NONE"
*DIVIDER /
*DELIMITER :
*BUS_DELIMITER []
*T_UNIT 1 NS
*C_UNIT 1 PF
*R_UNIT 1 OHM
*L_UNIT 1 HENRY

*NAME_MAP
*3 gpio_defaults_low\[0\]
*4 gpio_defaults_high\[10\]
*5 gpio_defaults_low\[11\]
*6 gpio_defaults_low\[12\]
*7 gpio_defaults_high\[1\]
*8 gpio_defaults_low\[2\]
*9 gpio_defaults_low\[3\]
*10 gpio_defaults_low\[4\]
*11 gpio_defaults_low\[5\]
*12 gpio_defaults_low\[6\]
*13 gpio_defaults_low\[7\]
*14 gpio_defaults_low\[8\]
*15 gpio_defaults_low\[9\]
*16 gpio_defaults_high\[0\]
*17 gpio_defaults_high\[11\]
*18 gpio_defaults_high\[12\]
*19 gpio_defaults_high\[2\]
*20 gpio_defaults_high\[3\]
*21 gpio_defaults_high\[4\]
*22 gpio_defaults_high\[5\]
*23 gpio_defaults_high\[6\]
*24 gpio_defaults_high\[7\]
*25 gpio_defaults_high\[8\]
*26 gpio_defaults_high\[9\]
*27 gpio_defaults_low\[10\]
*28 gpio_defaults_low\[1\]
*29 FILLER_0_15
*30 FILLER_0_18
*31 FILLER_0_23
*32 FILLER_0_3
*33 FILLER_0_8
*34 FILLER_1_13
*35 FILLER_1_17
*36 FILLER_1_24
*37 FILLER_1_3
*38 FILLER_1_9
*39 FILLER_2_18
*40 FILLER_2_26
*41 FILLER_2_3
*42 FILLER_2_9
*43 FILLER_3_16
*44 FILLER_3_24
*45 FILLER_3_3
*46 FILLER_3_9
*47 FILLER_4_14
*48 FILLER_4_18
*49 FILLER_4_23
*50 FILLER_4_3
*51 FILLER_5_15
*52 FILLER_5_18
*53 FILLER_5_26
*54 FILLER_5_3
*55 FILLER_5_8
*56 PHY_0
*57 PHY_1
*58 PHY_10
*59 PHY_11
*60 PHY_2
*61 PHY_3
*62 PHY_4
*63 PHY_5
*64 PHY_6
*65 PHY_7
*66 PHY_8
*67 PHY_9
*68 TAP_12
*69 TAP_13
*70 TAP_14
*71 TAP_15
*72 gpio_default_value\[0\]
*73 gpio_default_value\[10\]
*74 gpio_default_value\[11\]
*75 gpio_default_value\[12\]
*76 gpio_default_value\[1\]
*77 gpio_default_value\[2\]
*78 gpio_default_value\[3\]
*79 gpio_default_value\[4\]
*80 gpio_default_value\[5\]
*81 gpio_default_value\[6\]
*82 gpio_default_value\[7\]
*83 gpio_default_value\[8\]
*84 gpio_default_value\[9\]

*PORTS
gpio_defaults[0] O
gpio_defaults[10] O
gpio_defaults[11] O
gpio_defaults[12] O
gpio_defaults[1] O
gpio_defaults[2] O
gpio_defaults[3] O
gpio_defaults[4] O
gpio_defaults[5] O
gpio_defaults[6] O
gpio_defaults[7] O
gpio_defaults[8] O
gpio_defaults[9] O

*D_NET *3 0.00132652
*CONN
*P gpio_defaults[0] O
*I *72:LO O *D sky130_fd_sc_hd__conb_1
*CAP
1 gpio_defaults[0] 0.000439999
2 *72:LO 0.000439999
3 gpio_defaults[0] gpio_defaults[1] 0.000374302
4 gpio_defaults[0] gpio_defaults[8] 6.39808e-05
5 gpio_defaults[0] gpio_defaults[9] 8.23597e-06
*RES
1 *72:LO gpio_defaults[0] 24.1214 
*END

*D_NET *4 0.00168556
*CONN
*P gpio_defaults[10] O
*I *73:HI O *D sky130_fd_sc_hd__conb_1
*CAP
1 gpio_defaults[10] 0.000789412
2 *73:HI 0.000789412
3 gpio_defaults[10] gpio_defaults[9] 0.000106739
*RES
1 *73:HI gpio_defaults[10] 25.3393 
*END

*D_NET *5 0.00214491
*CONN
*P gpio_defaults[11] O
*I *74:LO O *D sky130_fd_sc_hd__conb_1
*CAP
1 gpio_defaults[11] 0.000896545
2 *74:LO 0.000896545
3 gpio_defaults[11] gpio_defaults[12] 0.000230482
4 gpio_defaults[11] gpio_defaults[2] 9.3479e-05
5 gpio_defaults[11] gpio_defaults[5] 2.78576e-05
*RES
1 *74:LO gpio_defaults[11] 29.0679 
*END

*D_NET *6 0.0013025
*CONN
*P gpio_defaults[12] O
*I *75:LO O *D sky130_fd_sc_hd__conb_1
*CAP
1 gpio_defaults[12] 0.000522349
2 *75:LO 0.000522349
3 gpio_defaults[12] gpio_defaults[3] 8.22793e-06
4 gpio_defaults[12] gpio_defaults[4] 1.90936e-05
5 gpio_defaults[11] gpio_defaults[12] 0.000230482
*RES
1 *75:LO gpio_defaults[12] 22.6036 
*END

*D_NET *7 0.00162191
*CONN
*P gpio_defaults[1] O
*I *76:HI O *D sky130_fd_sc_hd__conb_1
*CAP
1 gpio_defaults[1] 0.000623807
2 *76:HI 0.000623807
3 gpio_defaults[0] gpio_defaults[1] 0.000374302
*RES
1 *76:HI gpio_defaults[1] 26.7821 
*END

*D_NET *8 0.000894465
*CONN
*P gpio_defaults[2] O
*I *77:LO O *D sky130_fd_sc_hd__conb_1
*CAP
1 gpio_defaults[2] 0.000326553
2 *77:LO 0.000326553
3 gpio_defaults[2] gpio_defaults[3] 0.000147881
4 gpio_defaults[11] gpio_defaults[2] 9.3479e-05
*RES
1 *77:LO gpio_defaults[2] 20.375 
*END

*D_NET *9 0.00098307
*CONN
*P gpio_defaults[3] O
*I *78:LO O *D sky130_fd_sc_hd__conb_1
*CAP
1 gpio_defaults[3] 0.000288265
2 *78:LO 0.000288265
3 gpio_defaults[3] gpio_defaults[4] 0.000250431
4 gpio_defaults[12] gpio_defaults[3] 8.22793e-06
5 gpio_defaults[2] gpio_defaults[3] 0.000147881
*RES
1 *78:LO gpio_defaults[3] 20.2294 
*END

*D_NET *10 0.00165019
*CONN
*P gpio_defaults[4] O
*I *79:LO O *D sky130_fd_sc_hd__conb_1
*CAP
1 gpio_defaults[4] 0.000690334
2 *79:LO 0.000690334
3 gpio_defaults[12] gpio_defaults[4] 1.90936e-05
4 gpio_defaults[3] gpio_defaults[4] 0.000250431
*RES
1 *79:LO gpio_defaults[4] 23.1764 
*END

*D_NET *11 0.00102271
*CONN
*P gpio_defaults[5] O
*I *80:LO O *D sky130_fd_sc_hd__conb_1
*CAP
1 gpio_defaults[5] 0.000402342
2 *80:LO 0.000402342
3 gpio_defaults[5] gpio_defaults[6] 0.000190165
4 gpio_defaults[11] gpio_defaults[5] 2.78576e-05
*RES
1 *80:LO gpio_defaults[5] 20.4079 
*END

*D_NET *12 0.000763271
*CONN
*P gpio_defaults[6] O
*I *81:LO O *D sky130_fd_sc_hd__conb_1
*CAP
1 gpio_defaults[6] 0.000191471
2 *81:LO 0.000191471
3 gpio_defaults[6] gpio_defaults[7] 0.000190165
4 gpio_defaults[5] gpio_defaults[6] 0.000190165
*RES
1 *81:LO gpio_defaults[6] 18.5865 
*END

*D_NET *13 0.000959504
*CONN
*P gpio_defaults[7] O
*I *82:LO O *D sky130_fd_sc_hd__conb_1
*CAP
1 gpio_defaults[7] 0.000384669
2 *82:LO 0.000384669
3 gpio_defaults[6] gpio_defaults[7] 0.000190165
*RES
1 *82:LO gpio_defaults[7] 20.6401 
*END

*D_NET *14 0.00120869
*CONN
*P gpio_defaults[8] O
*I *83:LO O *D sky130_fd_sc_hd__conb_1
*CAP
1 gpio_defaults[8] 0.000477682
2 *83:LO 0.000477682
3 gpio_defaults[8] gpio_defaults[9] 0.000189351
4 gpio_defaults[0] gpio_defaults[8] 6.39808e-05
*RES
1 *83:LO gpio_defaults[8] 20.4979 
*END

*D_NET *15 0.000792497
*CONN
*P gpio_defaults[9] O
*I *84:LO O *D sky130_fd_sc_hd__conb_1
*CAP
1 gpio_defaults[9] 0.000244086
2 *84:LO 0.000244086
3 gpio_defaults[0] gpio_defaults[9] 8.23597e-06
4 gpio_defaults[10] gpio_defaults[9] 0.000106739
5 gpio_defaults[8] gpio_defaults[9] 0.000189351
*RES
1 *84:LO gpio_defaults[9] 18.9972 
*END
