*SPEF "ieee 1481-1999"
*DESIGN "spare_logic_block"
*DATE "11:11:11 Fri 11 11, 1111"
*VENDOR "OpenRCX"
*PROGRAM "Parallel Extraction"
*VERSION "1.0"
*DESIGN_FLOW "NAME_SCOPE LOCAL" "PIN_CAP NONE"
*DIVIDER /
*DELIMITER :
*BUS_DELIMITER []
*T_UNIT 1 NS
*C_UNIT 1 PF
*R_UNIT 1 OHM
*L_UNIT 1 HENRY

*NAME_MAP
*1 spare_xfq[0]
*2 spare_xfq[1]
*3 spare_xfqn[0]
*4 spare_xfqn[1]
*5 spare_xi[0]
*6 spare_xi[1]
*7 spare_xi[2]
*8 spare_xi[3]
*9 spare_xib
*10 spare_xmx[0]
*11 spare_xmx[1]
*12 spare_xna[0]
*13 spare_xna[1]
*14 spare_xno[0]
*15 spare_xno[1]
*16 spare_xz[0]
*17 spare_xz[10]
*18 spare_xz[11]
*19 spare_xz[12]
*20 spare_xz[13]
*21 spare_xz[14]
*22 spare_xz[15]
*23 spare_xz[16]
*24 spare_xz[17]
*25 spare_xz[18]
*26 spare_xz[19]
*27 spare_xz[1]
*28 spare_xz[20]
*29 spare_xz[21]
*30 spare_xz[22]
*31 spare_xz[23]
*32 spare_xz[24]
*33 spare_xz[25]
*34 spare_xz[26]
*35 spare_xz[2]
*36 spare_xz[3]
*37 spare_xz[4]
*38 spare_xz[5]
*39 spare_xz[6]
*40 spare_xz[7]
*41 spare_xz[8]
*42 spare_xz[9]
*45 spare_logic1\[0\]
*46 spare_logic1\[10\]
*47 spare_logic1\[11\]
*48 spare_logic1\[12\]
*49 spare_logic1\[13\]
*50 spare_logic1\[14\]
*51 spare_logic1\[15\]
*52 spare_logic1\[16\]
*53 spare_logic1\[17\]
*54 spare_logic1\[18\]
*55 spare_logic1\[19\]
*56 spare_logic1\[1\]
*57 spare_logic1\[20\]
*58 spare_logic1\[21\]
*59 spare_logic1\[22\]
*60 spare_logic1\[23\]
*61 spare_logic1\[24\]
*62 spare_logic1\[25\]
*63 spare_logic1\[26\]
*64 spare_logic1\[2\]
*65 spare_logic1\[3\]
*66 spare_logic1\[4\]
*67 spare_logic1\[5\]
*68 spare_logic1\[6\]
*69 spare_logic1\[7\]
*70 spare_logic1\[8\]
*71 spare_logic1\[9\]
*72 FILLER_0_17
*73 FILLER_0_24
*74 FILLER_0_29
*75 FILLER_0_3
*76 FILLER_0_34
*77 FILLER_0_46
*78 FILLER_0_54
*79 FILLER_0_57
*80 FILLER_0_68
*81 FILLER_0_8
*82 FILLER_10_14
*83 FILLER_10_22
*84 FILLER_10_26
*85 FILLER_10_29
*86 FILLER_10_3
*87 FILLER_10_34
*88 FILLER_10_46
*89 FILLER_10_53
*90 FILLER_10_57
*91 FILLER_10_61
*92 FILLER_10_68
*93 FILLER_11_14
*94 FILLER_11_26
*95 FILLER_11_29
*96 FILLER_11_3
*97 FILLER_11_41
*98 FILLER_11_53
*99 FILLER_11_57
*100 FILLER_11_68
*101 FILLER_1_3
*102 FILLER_1_36
*103 FILLER_1_40
*104 FILLER_1_44
*105 FILLER_1_51
*106 FILLER_1_55
*107 FILLER_1_57
*108 FILLER_1_68
*109 FILLER_1_9
*110 FILLER_2_15
*111 FILLER_2_22
*112 FILLER_2_29
*113 FILLER_2_3
*114 FILLER_2_41
*115 FILLER_2_50
*116 FILLER_2_62
*117 FILLER_2_8
*118 FILLER_3_13
*119 FILLER_3_3
*120 FILLER_3_43
*121 FILLER_3_52
*122 FILLER_3_57
*123 FILLER_3_62
*124 FILLER_3_9
*125 FILLER_4_15
*126 FILLER_4_27
*127 FILLER_4_29
*128 FILLER_4_3
*129 FILLER_4_41
*130 FILLER_4_53
*131 FILLER_4_65
*132 FILLER_4_69
*133 FILLER_5_11
*134 FILLER_5_16
*135 FILLER_5_28
*136 FILLER_5_3
*137 FILLER_5_40
*138 FILLER_5_48
*139 FILLER_5_57
*140 FILLER_5_64
*141 FILLER_6_19
*142 FILLER_6_27
*143 FILLER_6_29
*144 FILLER_6_3
*145 FILLER_6_41
*146 FILLER_6_53
*147 FILLER_6_65
*148 FILLER_6_69
*149 FILLER_6_9
*150 FILLER_7_20
*151 FILLER_7_3
*152 FILLER_7_32
*153 FILLER_7_44
*154 FILLER_7_57
*155 FILLER_7_68
*156 FILLER_7_8
*157 FILLER_8_16
*158 FILLER_8_20
*159 FILLER_8_29
*160 FILLER_8_3
*161 FILLER_8_34
*162 FILLER_8_46
*163 FILLER_8_50
*164 FILLER_8_60
*165 FILLER_8_68
*166 FILLER_8_8
*167 FILLER_9_12
*168 FILLER_9_19
*169 FILLER_9_23
*170 FILLER_9_27
*171 FILLER_9_3
*172 FILLER_9_35
*173 FILLER_9_42
*174 FILLER_9_54
*175 FILLER_9_57
*176 FILLER_9_62
*177 PHY_0
*178 PHY_1
*179 PHY_10
*180 PHY_11
*181 PHY_12
*182 PHY_13
*183 PHY_14
*184 PHY_15
*185 PHY_16
*186 PHY_17
*187 PHY_18
*188 PHY_19
*189 PHY_2
*190 PHY_20
*191 PHY_21
*192 PHY_22
*193 PHY_23
*194 PHY_3
*195 PHY_4
*196 PHY_5
*197 PHY_6
*198 PHY_7
*199 PHY_8
*200 PHY_9
*201 TAP_24
*202 TAP_25
*203 TAP_26
*204 TAP_27
*205 TAP_28
*206 TAP_29
*207 TAP_30
*208 TAP_31
*209 TAP_32
*210 TAP_33
*211 TAP_34
*212 TAP_35
*213 TAP_36
*214 TAP_37
*215 spare_logic_biginv
*216 spare_logic_const\[0\]
*217 spare_logic_const\[10\]
*218 spare_logic_const\[11\]
*219 spare_logic_const\[12\]
*220 spare_logic_const\[13\]
*221 spare_logic_const\[14\]
*222 spare_logic_const\[15\]
*223 spare_logic_const\[16\]
*224 spare_logic_const\[17\]
*225 spare_logic_const\[18\]
*226 spare_logic_const\[19\]
*227 spare_logic_const\[1\]
*228 spare_logic_const\[20\]
*229 spare_logic_const\[21\]
*230 spare_logic_const\[22\]
*231 spare_logic_const\[23\]
*232 spare_logic_const\[24\]
*233 spare_logic_const\[25\]
*234 spare_logic_const\[26\]
*235 spare_logic_const\[2\]
*236 spare_logic_const\[3\]
*237 spare_logic_const\[4\]
*238 spare_logic_const\[5\]
*239 spare_logic_const\[6\]
*240 spare_logic_const\[7\]
*241 spare_logic_const\[8\]
*242 spare_logic_const\[9\]
*243 spare_logic_flop\[0\]
*244 spare_logic_flop\[1\]
*245 spare_logic_inv\[0\]
*246 spare_logic_inv\[1\]
*247 spare_logic_inv\[2\]
*248 spare_logic_inv\[3\]
*249 spare_logic_mux\[0\]
*250 spare_logic_mux\[1\]
*251 spare_logic_nand\[0\]
*252 spare_logic_nand\[1\]
*253 spare_logic_nor\[0\]
*254 spare_logic_nor\[1\]

*PORTS
spare_xfq[0] O
spare_xfq[1] O
spare_xfqn[0] O
spare_xfqn[1] O
spare_xi[0] O
spare_xi[1] O
spare_xi[2] O
spare_xi[3] O
spare_xib O
spare_xmx[0] O
spare_xmx[1] O
spare_xna[0] O
spare_xna[1] O
spare_xno[0] O
spare_xno[1] O
spare_xz[0] O
spare_xz[10] O
spare_xz[11] O
spare_xz[12] O
spare_xz[13] O
spare_xz[14] O
spare_xz[15] O
spare_xz[16] O
spare_xz[17] O
spare_xz[18] O
spare_xz[19] O
spare_xz[1] O
spare_xz[20] O
spare_xz[21] O
spare_xz[22] O
spare_xz[23] O
spare_xz[24] O
spare_xz[25] O
spare_xz[26] O
spare_xz[2] O
spare_xz[3] O
spare_xz[4] O
spare_xz[5] O
spare_xz[6] O
spare_xz[7] O
spare_xz[8] O
spare_xz[9] O

*D_NET *1 0.00190471
*CONN
*P spare_xfq[0] O
*I *243:Q O *D sky130_fd_sc_hd__dfbbp_1
*CAP
1 spare_xfq[0] 0.000778539
2 *243:Q 0.000778539
3 spare_xfq[0] spare_xz[15] 4.82863e-05
4 spare_xfq[0] spare_xz[16] 6.04303e-05
5 spare_xfq[0] spare_xz[7] 0
6 spare_xfq[0] *245:A 0.000238913
*RES
1 *243:Q spare_xfq[0] 8.72077 
*END

*D_NET *2 0.00215422
*CONN
*P spare_xfq[1] O
*I *244:Q O *D sky130_fd_sc_hd__dfbbp_1
*CAP
1 spare_xfq[1] 0.000674633
2 *244:Q 0.000674633
3 spare_xfq[1] spare_xi[0] 0.000611479
4 spare_xfq[1] spare_xz[6] 0
5 spare_xfq[1] *245:A 0.000145184
6 spare_xfq[1] *27:8 0
7 spare_xfq[1] *39:7 4.82863e-05
*RES
1 *244:Q spare_xfq[1] 15.645 
*END

*D_NET *3 0.00368945
*CONN
*P spare_xfqn[0] O
*I *243:Q_N O *D sky130_fd_sc_hd__dfbbp_1
*CAP
1 spare_xfqn[0] 0.00136884
2 *243:Q_N 0.00136884
3 spare_xfqn[0] spare_xfqn[1] 0.000435581
4 spare_xfqn[0] spare_xmx[1] 0
5 spare_xfqn[0] spare_xna[0] 0
6 spare_xfqn[0] spare_xz[10] 0
7 spare_xfqn[0] spare_xz[15] 1.1392e-05
8 spare_xfqn[0] spare_xz[5] 0
9 spare_xfqn[0] *243:D 6.27438e-05
10 spare_xfqn[0] *243:RESET_B 4.02568e-05
11 spare_xfqn[0] *251:B 0.000401798
*RES
1 *243:Q_N spare_xfqn[0] 28.83 
*END

*D_NET *4 0.00480405
*CONN
*P spare_xfqn[1] O
*I *244:Q_N O *D sky130_fd_sc_hd__dfbbp_1
*CAP
1 spare_xfqn[1] 0.00189426
2 *244:Q_N 0.00189426
3 spare_xfqn[1] spare_xib 6.39184e-05
4 spare_xfqn[1] spare_xno[1] 0.000103107
5 spare_xfqn[1] *243:CLK 0
6 spare_xfqn[1] *243:D 0.000294414
7 spare_xfqn[1] *243:SET_B 0
8 spare_xfqn[1] *251:A 0
9 spare_xfqn[1] *28:8 0.00011852
10 spare_xfqn[0] spare_xfqn[1] 0.000435581
*RES
1 *244:Q_N spare_xfqn[1] 24.3865 
*END

*D_NET *5 0.00251735
*CONN
*P spare_xi[0] O
*I *245:Y O *D sky130_fd_sc_hd__inv_2
*CAP
1 spare_xi[0] 0.000952934
2 *245:Y 0.000952934
3 spare_xi[0] spare_xi[1] 0
4 spare_xi[0] spare_xz[1] 0
5 spare_xfq[1] spare_xi[0] 0.000611479
*RES
1 *245:Y spare_xi[0] 20.73 
*END

*D_NET *6 0.00135266
*CONN
*P spare_xi[1] O
*I *246:Y O *D sky130_fd_sc_hd__inv_2
*CAP
1 spare_xi[1] 0.000544338
2 *246:Y 0.000544338
3 spare_xi[1] spare_xna[1] 0
4 spare_xi[1] spare_xz[1] 0.000263986
5 spare_xi[0] spare_xi[1] 0
*RES
1 *246:Y spare_xi[1] 11.272 
*END

*D_NET *7 0.00125158
*CONN
*P spare_xi[2] O
*I *247:Y O *D sky130_fd_sc_hd__inv_2
*CAP
1 spare_xi[2] 0.00052098
2 *247:Y 0.00052098
3 spare_xi[2] spare_xna[0] 0
4 spare_xi[2] spare_xz[11] 6.36578e-05
5 spare_xi[2] spare_xz[17] 8.53361e-05
6 spare_xi[2] spare_xz[3] 6.06265e-05
7 spare_xi[2] *249:S 0
*RES
1 *247:Y spare_xi[2] 10.4118 
*END

*D_NET *8 0.00233978
*CONN
*P spare_xi[3] O
*I *248:Y O *D sky130_fd_sc_hd__inv_2
*CAP
1 spare_xi[3] 0.00116989
2 *248:Y 0.00116989
3 spare_xi[3] spare_xz[18] 0
*RES
1 *248:Y spare_xi[3] 21.615 
*END

*D_NET *9 0.000932114
*CONN
*P spare_xib O
*I *215:Y O *D sky130_fd_sc_hd__inv_8
*CAP
1 spare_xib 0.000434098
2 *215:Y 0.000434098
3 spare_xib spare_xz[14] 0
4 spare_xib spare_xz[18] 0
5 spare_xib spare_xz[8] 0
6 spare_xfqn[1] spare_xib 6.39184e-05
*RES
1 *215:Y spare_xib 7.5133 
*END

*D_NET *10 0.00166209
*CONN
*P spare_xmx[0] O
*I *249:X O *D sky130_fd_sc_hd__mux2_2
*CAP
1 spare_xmx[0] 0.000675878
2 *249:X 0.000675878
3 spare_xmx[0] spare_xz[11] 0
4 spare_xmx[0] spare_xz[2] 0.000247589
5 spare_xmx[0] *249:A0 0
6 spare_xmx[0] *249:S 6.27438e-05
7 spare_xmx[0] *253:B 0
*RES
1 *249:X spare_xmx[0] 15.18 
*END

*D_NET *11 0.0034076
*CONN
*P spare_xmx[1] O
*I *250:X O *D sky130_fd_sc_hd__mux2_2
*CAP
1 spare_xmx[1] 0.00161547
2 *250:X 0.00161547
3 spare_xmx[1] spare_xz[6] 0
4 spare_xmx[1] *243:CLK 0.000176652
5 spare_xmx[1] *251:B 0
6 spare_xfqn[0] spare_xmx[1] 0
*RES
1 *250:X spare_xmx[1] 28.2 
*END

*D_NET *12 0.00286116
*CONN
*P spare_xna[0] O
*I *251:Y O *D sky130_fd_sc_hd__nand2_2
*CAP
1 spare_xna[0] 0.00134165
2 *251:Y 0.00134165
3 spare_xna[0] spare_xz[10] 9.54975e-05
4 spare_xna[0] spare_xz[13] 8.23602e-05
5 spare_xna[0] spare_xz[2] 0
6 spare_xfqn[0] spare_xna[0] 0
7 spare_xi[2] spare_xna[0] 0
*RES
1 *251:Y spare_xna[0] 8.3215 
*END

*D_NET *13 0.00252703
*CONN
*P spare_xna[1] O
*I *252:Y O *D sky130_fd_sc_hd__nand2_2
*CAP
1 spare_xna[1] 0.00112442
2 *252:Y 0.00112442
3 spare_xna[1] spare_xz[21] 9.84501e-05
4 spare_xna[1] spare_xz[6] 4.05569e-05
5 spare_xna[1] *252:A 0.000139189
6 spare_xi[1] spare_xna[1] 0
*RES
1 *252:Y spare_xna[1] 11.2286 
*END

*D_NET *14 0.00425173
*CONN
*P spare_xno[0] O
*I *253:Y O *D sky130_fd_sc_hd__nor2_2
*CAP
1 spare_xno[0] 0.00161008
2 *253:Y 0.00161008
3 spare_xno[0] spare_xz[16] 0
4 spare_xno[0] spare_xz[19] 2.87778e-05
5 spare_xno[0] spare_xz[22] 0
6 spare_xno[0] *250:A1 0
7 spare_xno[0] *251:B 0.000677726
8 spare_xno[0] *30:10 8.78292e-05
9 spare_xno[0] *40:5 0.000237238
*RES
1 *253:Y spare_xno[0] 33.78 
*END

*D_NET *15 0.000742175
*CONN
*P spare_xno[1] O
*I *254:Y O *D sky130_fd_sc_hd__nor2_2
*CAP
1 spare_xno[1] 0.00030944
2 *254:Y 0.00030944
3 spare_xno[1] spare_xz[12] 0
4 spare_xno[1] *250:A0 1.00941e-05
5 spare_xno[1] *254:B 1.00941e-05
6 spare_xfqn[1] spare_xno[1] 0.000103107
*RES
1 *254:Y spare_xno[1] 5.07983 
*END

*D_NET *16 0.00469607
*CONN
*P spare_xz[0] O
*I *245:A I *D sky130_fd_sc_hd__inv_2
*I *216:LO O *D sky130_fd_sc_hd__conb_1
*CAP
1 spare_xz[0] 0.000756252
2 *245:A 0.000753695
3 *216:LO 0.000126838
4 *16:7 0.00163679
5 spare_xz[0] spare_xz[12] 4.18273e-05
6 spare_xz[0] spare_xz[7] 0.000403384
7 spare_xz[0] *244:D 8.31058e-05
8 *245:A *244:D 0.000318841
9 *16:7 spare_xz[15] 0.000191243
10 spare_xfq[0] *245:A 0.000238913
11 spare_xfq[1] *245:A 0.000145184
*RES
1 *216:LO *16:7 6.465 
2 *16:7 *245:A 16.245 
3 *16:7 spare_xz[0] 6.20077 
*END

*D_NET *17 0.0027993
*CONN
*P spare_xz[10] O
*I *254:A I *D sky130_fd_sc_hd__nor2_2
*I *217:LO O *D sky130_fd_sc_hd__conb_1
*CAP
1 spare_xz[10] 0.00082746
2 *254:A 0.000286967
3 *217:LO 0
4 *17:4 0.00111443
5 spare_xz[10] spare_xz[20] 0
6 spare_xz[10] *251:A 0.000271776
7 spare_xz[10] *251:B 0
8 *254:A *21:7 0.000203178
9 spare_xfqn[0] spare_xz[10] 0
10 spare_xna[0] spare_xz[10] 9.54975e-05
*RES
1 *217:LO *17:4 1.6 
2 *17:4 *254:A 6.655 
3 *17:4 spare_xz[10] 16.79 
*END

*D_NET *18 0.00364477
*CONN
*P spare_xz[11] O
*I *253:B I *D sky130_fd_sc_hd__nor2_2
*I *218:LO O *D sky130_fd_sc_hd__conb_1
*CAP
1 spare_xz[11] 0.000749831
2 *253:B 0.000727902
3 *218:LO 0
4 *18:4 0.00147773
5 spare_xz[11] spare_xz[13] 3.38891e-05
6 spare_xz[11] spare_xz[3] 0
7 *253:B spare_xz[17] 2.37037e-05
8 *253:B spare_xz[20] 0
9 *253:B spare_xz[9] 1.03833e-05
10 *253:B *249:A0 0
11 *253:B *249:A1 0
12 *253:B *249:S 9.36786e-05
13 *253:B *253:A 0.00046399
14 spare_xi[2] spare_xz[11] 6.36578e-05
15 spare_xmx[0] spare_xz[11] 0
16 spare_xmx[0] *253:B 0
*RES
1 *218:LO *18:4 1.6 
2 *18:4 *253:B 19.415 
3 *18:4 spare_xz[11] 13.91 
*END

*D_NET *19 0.00157542
*CONN
*P spare_xz[12] O
*I *254:B I *D sky130_fd_sc_hd__nor2_2
*I *219:LO O *D sky130_fd_sc_hd__conb_1
*CAP
1 spare_xz[12] 0.000543932
2 *254:B 0.000217818
3 *219:LO 0
4 *19:5 0.000761751
5 spare_xz[12] spare_xz[18] 0
6 spare_xz[12] *250:A0 0
7 *254:B spare_xz[14] 0
8 *254:B spare_xz[18] 0
9 *254:B *250:A0 0
10 spare_xno[1] spare_xz[12] 0
11 spare_xno[1] *254:B 1.00941e-05
12 spare_xz[0] spare_xz[12] 4.18273e-05
*RES
1 *219:LO *19:5 3.6 
2 *19:5 spare_xz[12] 3.65157 
3 *19:5 *254:B 7.14 
*END

*D_NET *20 0.002089
*CONN
*P spare_xz[13] O
*I *249:A0 I *D sky130_fd_sc_hd__mux2_2
*I *220:LO O *D sky130_fd_sc_hd__conb_1
*CAP
1 spare_xz[13] 0.000273399
2 *249:A0 0.000561785
3 *220:LO 0
4 *20:4 0.000835184
5 spare_xz[13] spare_xz[2] 7.9903e-05
6 *249:A0 spare_xz[20] 0.000222478
7 *249:A0 spare_xz[2] 0
8 spare_xmx[0] *249:A0 0
9 spare_xna[0] spare_xz[13] 8.23602e-05
10 spare_xz[11] spare_xz[13] 3.38891e-05
11 *253:B *249:A0 0
*RES
1 *220:LO *20:4 1.6 
2 *20:4 *249:A0 15.725 
3 *20:4 spare_xz[13] 5.58677 
*END

*D_NET *21 0.00239223
*CONN
*P spare_xz[14] O
*I *250:A0 I *D sky130_fd_sc_hd__mux2_2
*I *221:LO O *D sky130_fd_sc_hd__conb_1
*CAP
1 spare_xz[14] 0.000360251
2 *250:A0 0.000388903
3 *221:LO 0.00012463
4 *21:7 0.000873784
5 spare_xz[14] spare_xz[4] 0.00015988
6 spare_xz[14] spare_xz[8] 0
7 spare_xz[14] *215:A 0.000114064
8 *250:A0 spare_xz[8] 0
9 *250:A0 *250:A1 5.34747e-05
10 *250:A0 *250:S 0.000103974
11 spare_xib spare_xz[14] 0
12 spare_xno[1] *250:A0 1.00941e-05
13 spare_xz[12] *250:A0 0
14 *254:A *21:7 0.000203178
15 *254:B spare_xz[14] 0
16 *254:B *250:A0 0
*RES
1 *221:LO *21:7 6.12 
2 *21:7 *250:A0 10.71 
3 *21:7 spare_xz[14] 7.575 
*END

*D_NET *22 0.00653339
*CONN
*P spare_xz[15] O
*I *249:A1 I *D sky130_fd_sc_hd__mux2_2
*I *222:LO O *D sky130_fd_sc_hd__conb_1
*CAP
1 spare_xz[15] 0.00118457
2 *249:A1 0.00160721
3 *222:LO 0.000148632
4 *22:8 0.00294042
5 spare_xz[15] spare_xz[22] 0
6 *249:A1 spare_xz[20] 3.86607e-05
7 *249:A1 *243:SET_B 0
8 *249:A1 *244:D 0.000269192
9 *249:A1 *252:B 0
10 *22:8 *243:SET_B 0
11 *22:8 *244:D 9.37731e-05
12 spare_xfq[0] spare_xz[15] 4.82863e-05
13 spare_xfqn[0] spare_xz[15] 1.1392e-05
14 *253:B *249:A1 0
15 *16:7 spare_xz[15] 0.000191243
*RES
1 *222:LO *22:8 5.52 
2 *22:8 spare_xz[15] 23.575 
3 *22:8 *249:A1 28.9 
*END

*D_NET *23 0.00250215
*CONN
*P spare_xz[16] O
*I *250:A1 I *D sky130_fd_sc_hd__mux2_2
*I *223:LO O *D sky130_fd_sc_hd__conb_1
*CAP
1 spare_xz[16] 0.000405395
2 *250:A1 0.000685634
3 *223:LO 0
4 *23:5 0.00109103
5 spare_xz[16] spare_xz[19] 0.000135158
6 spare_xz[16] *30:10 6.40815e-05
7 *250:A1 *30:10 6.94735e-06
8 spare_xfq[0] spare_xz[16] 6.04303e-05
9 spare_xno[0] spare_xz[16] 0
10 spare_xno[0] *250:A1 0
11 *250:A0 *250:A1 5.34747e-05
*RES
1 *223:LO *23:5 3.6 
2 *23:5 spare_xz[16] 4.9333 
3 *23:5 *250:A1 13.875 
*END

*D_NET *24 0.00203893
*CONN
*P spare_xz[17] O
*I *249:S I *D sky130_fd_sc_hd__mux2_2
*I *224:LO O *D sky130_fd_sc_hd__conb_1
*CAP
1 spare_xz[17] 0.000381558
2 *249:S 0.000337996
3 *224:LO 0.000107234
4 *24:7 0.000826787
5 spare_xz[17] spare_xz[9] 0.00011989
6 spare_xi[2] spare_xz[17] 8.53361e-05
7 spare_xi[2] *249:S 0
8 spare_xmx[0] *249:S 6.27438e-05
9 *253:B spare_xz[17] 2.37037e-05
10 *253:B *249:S 9.36786e-05
*RES
1 *224:LO *24:7 4.74 
2 *24:7 spare_xz[17] 2.2229 
3 *24:7 *249:S 9.81 
*END

*D_NET *25 0.00241821
*CONN
*P spare_xz[18] O
*I *250:S I *D sky130_fd_sc_hd__mux2_2
*I *225:LO O *D sky130_fd_sc_hd__conb_1
*CAP
1 spare_xz[18] 0.000892662
2 *250:S 0.000264454
3 *225:LO 0
4 *25:4 0.00115712
5 *250:S *244:D 0
6 spare_xi[3] spare_xz[18] 0
7 spare_xib spare_xz[18] 0
8 spare_xz[12] spare_xz[18] 0
9 *250:A0 *250:S 0.000103974
10 *254:B spare_xz[18] 0
*RES
1 *225:LO *25:4 1.6 
2 *25:4 spare_xz[18] 16.955 
3 *25:4 *250:S 10.175 
*END

*D_NET *26 0.00421019
*CONN
*P spare_xz[19] O
*I *243:D I *D sky130_fd_sc_hd__dfbbp_1
*I *226:LO O *D sky130_fd_sc_hd__conb_1
*CAP
1 spare_xz[19] 0.000409666
2 *243:D 0.00110355
3 *226:LO 0
4 *26:4 0.00151322
5 *243:D *243:RESET_B 0.000161829
6 *243:D *243:SET_B 0.000130205
7 *243:D *244:RESET_B 0.000141599
8 *243:D *32:7 0.000201503
9 *243:D *34:7 2.75229e-05
10 spare_xfqn[0] *243:D 6.27438e-05
11 spare_xfqn[1] *243:D 0.000294414
12 spare_xno[0] spare_xz[19] 2.87778e-05
13 spare_xz[16] spare_xz[19] 0.000135158
*RES
1 *226:LO *26:4 1.6 
2 *26:4 spare_xz[19] 6.56003 
3 *26:4 *243:D 22.655 
*END

*D_NET *27 0.000849063
*CONN
*P spare_xz[1] O
*I *246:A I *D sky130_fd_sc_hd__inv_2
*I *227:LO O *D sky130_fd_sc_hd__conb_1
*CAP
1 spare_xz[1] 0.000186084
2 *246:A 0
3 *227:LO 0.000106455
4 *27:8 0.000292539
5 spare_xfq[1] *27:8 0
6 spare_xi[0] spare_xz[1] 0
7 spare_xi[1] spare_xz[1] 0.000263986
*RES
1 *227:LO *27:8 7.235 
2 *27:8 *246:A 1.6 
3 *27:8 spare_xz[1] 6.05 
*END

*D_NET *28 0.00616137
*CONN
*P spare_xz[20] O
*I *244:D I *D sky130_fd_sc_hd__dfbbp_1
*I *228:LO O *D sky130_fd_sc_hd__conb_1
*CAP
1 spare_xz[20] 0.0012221
2 *244:D 0.00106351
3 *228:LO 5.93762e-05
4 *28:8 0.00234498
5 spare_xz[20] *252:B 5.51158e-05
6 *244:D spare_xz[7] 0.000217714
7 *244:D *243:SET_B 0
8 *244:D *244:SET_B 5.4003e-05
9 spare_xfqn[1] *28:8 0.00011852
10 spare_xz[0] *244:D 8.31058e-05
11 spare_xz[10] spare_xz[20] 0
12 *245:A *244:D 0.000318841
13 *249:A0 spare_xz[20] 0.000222478
14 *249:A1 spare_xz[20] 3.86607e-05
15 *249:A1 *244:D 0.000269192
16 *250:S *244:D 0
17 *253:B spare_xz[20] 0
18 *22:8 *244:D 9.37731e-05
*RES
1 *228:LO *28:8 6.98 
2 *28:8 *244:D 24.785 
3 *28:8 spare_xz[20] 19.895 
*END

*D_NET *29 0.00266328
*CONN
*P spare_xz[21] O
*I *243:CLK I *D sky130_fd_sc_hd__dfbbp_1
*I *229:LO O *D sky130_fd_sc_hd__conb_1
*CAP
1 spare_xz[21] 0.000821887
2 *243:CLK 0.000243481
3 *229:LO 0
4 *29:4 0.00106537
5 spare_xz[21] spare_xz[25] 0.000257445
6 spare_xfqn[1] *243:CLK 0
7 spare_xmx[1] *243:CLK 0.000176652
8 spare_xna[1] spare_xz[21] 9.84501e-05
*RES
1 *229:LO *29:4 1.6 
2 *29:4 *243:CLK 9.575 
3 *29:4 spare_xz[21] 4.83517 
*END

*D_NET *30 0.00204379
*CONN
*P spare_xz[22] O
*I *244:CLK I *D sky130_fd_sc_hd__dfbbp_1
*I *230:LO O *D sky130_fd_sc_hd__conb_1
*CAP
1 spare_xz[22] 0.000416148
2 *244:CLK 0.00019853
3 *230:LO 0.000327786
4 *30:10 0.000942464
5 spare_xno[0] spare_xz[22] 0
6 spare_xno[0] *30:10 8.78292e-05
7 spare_xz[15] spare_xz[22] 0
8 spare_xz[16] *30:10 6.40815e-05
9 *250:A1 *30:10 6.94735e-06
*RES
1 *230:LO *30:10 11.555 
2 *30:10 spare_xz[22] 8.78 
3 *30:10 *244:CLK 4.465 
*END

*D_NET *31 0.00189352
*CONN
*P spare_xz[23] O
*I *243:SET_B I *D sky130_fd_sc_hd__dfbbp_1
*I *231:LO O *D sky130_fd_sc_hd__conb_1
*CAP
1 spare_xz[23] 0.000249679
2 *243:SET_B 0.000487672
3 *231:LO 2.08101e-05
4 *31:5 0.000758162
5 spare_xz[23] spare_xz[24] 0
6 spare_xz[23] *32:7 0.000161529
7 *243:SET_B spare_xz[26] 2.97004e-06
8 *243:SET_B *244:RESET_B 7.16181e-05
9 *243:SET_B *244:SET_B 0
10 *243:SET_B *32:7 1.08758e-05
11 spare_xfqn[1] *243:SET_B 0
12 *243:D *243:SET_B 0.000130205
13 *244:D *243:SET_B 0
14 *249:A1 *243:SET_B 0
15 *22:8 *243:SET_B 0
*RES
1 *231:LO *31:5 1.96 
2 *31:5 spare_xz[23] 6.515 
3 *31:5 *243:SET_B 12.655 
*END

*D_NET *32 0.00122032
*CONN
*P spare_xz[24] O
*I *244:SET_B I *D sky130_fd_sc_hd__dfbbp_1
*I *232:LO O *D sky130_fd_sc_hd__conb_1
*CAP
1 spare_xz[24] 0.000231091
2 *244:SET_B 0.000123798
3 *232:LO 4.13136e-05
4 *32:7 0.000396202
5 spare_xz[24] spare_xz[26] 0
6 spare_xz[23] spare_xz[24] 0
7 spare_xz[23] *32:7 0.000161529
8 *243:D *32:7 0.000201503
9 *243:SET_B *244:SET_B 0
10 *243:SET_B *32:7 1.08758e-05
11 *244:D *244:SET_B 5.4003e-05
*RES
1 *232:LO *32:7 5.43 
2 *32:7 spare_xz[24] 3.63 
3 *32:7 *244:SET_B 4.145 
*END

*D_NET *33 0.00355059
*CONN
*P spare_xz[25] O
*I *243:RESET_B I *D sky130_fd_sc_hd__dfbbp_1
*I *233:LO O *D sky130_fd_sc_hd__conb_1
*CAP
1 spare_xz[25] 0.000408394
2 *243:RESET_B 0.00112338
3 *233:LO 0
4 *33:4 0.00153177
5 spare_xz[25] spare_xz[9] 0
6 spare_xz[25] *252:A 0
7 *243:RESET_B *252:A 2.75145e-05
8 spare_xfqn[0] *243:RESET_B 4.02568e-05
9 spare_xz[21] spare_xz[25] 0.000257445
10 *243:D *243:RESET_B 0.000161829
*RES
1 *233:LO *33:4 1.6 
2 *33:4 spare_xz[25] 3.8877 
3 *33:4 *243:RESET_B 16.165 
*END

*D_NET *34 0.00071704
*CONN
*P spare_xz[26] O
*I *244:RESET_B I *D sky130_fd_sc_hd__dfbbp_1
*I *234:LO O *D sky130_fd_sc_hd__conb_1
*CAP
1 spare_xz[26] 0.000147379
2 *244:RESET_B 6.60687e-05
3 *234:LO 2.32169e-05
4 *34:7 0.000236665
5 spare_xz[24] spare_xz[26] 0
6 *243:D *244:RESET_B 0.000141599
7 *243:D *34:7 2.75229e-05
8 *243:SET_B spare_xz[26] 2.97004e-06
9 *243:SET_B *244:RESET_B 7.16181e-05
*RES
1 *234:LO *34:7 4.05 
2 *34:7 spare_xz[26] 2.475 
3 *34:7 *244:RESET_B 5.745 
*END

*D_NET *35 0.00199082
*CONN
*P spare_xz[2] O
*I *247:A I *D sky130_fd_sc_hd__inv_2
*I *235:LO O *D sky130_fd_sc_hd__conb_1
*CAP
1 spare_xz[2] 0.000639849
2 *247:A 5.30848e-05
3 *235:LO 3.45264e-05
4 *35:5 0.00072746
5 *247:A spare_xz[3] 0.00012182
6 *35:5 spare_xz[3] 8.65905e-05
7 spare_xmx[0] spare_xz[2] 0.000247589
8 spare_xna[0] spare_xz[2] 0
9 spare_xz[13] spare_xz[2] 7.9903e-05
10 *249:A0 spare_xz[2] 0
*RES
1 *235:LO *35:5 2.395 
2 *35:5 spare_xz[2] 9.0679 
3 *35:5 *247:A 2.74 
*END

*D_NET *36 0.00348459
*CONN
*P spare_xz[3] O
*I *248:A I *D sky130_fd_sc_hd__inv_2
*I *236:LO O *D sky130_fd_sc_hd__conb_1
*CAP
1 spare_xz[3] 0.00092993
2 *248:A 0.000596245
3 *236:LO 0
4 *36:4 0.00152618
5 *248:A *38:7 0.000163204
6 spare_xi[2] spare_xz[3] 6.06265e-05
7 spare_xz[11] spare_xz[3] 0
8 *247:A spare_xz[3] 0.00012182
9 *35:5 spare_xz[3] 8.65905e-05
*RES
1 *236:LO *36:4 1.6 
2 *36:4 *248:A 10.69 
3 *36:4 spare_xz[3] 17.39 
*END

*D_NET *37 0.00101125
*CONN
*P spare_xz[4] O
*I *215:A I *D sky130_fd_sc_hd__inv_8
*I *237:LO O *D sky130_fd_sc_hd__conb_1
*CAP
1 spare_xz[4] 0.000241753
2 *215:A 0.000111036
3 *237:LO 0
4 *37:5 0.000352789
5 spare_xz[4] spare_xz[8] 3.17314e-05
6 *215:A spare_xz[8] 0
7 spare_xz[14] spare_xz[4] 0.00015988
8 spare_xz[14] *215:A 0.000114064
*RES
1 *237:LO *37:5 3.6 
2 *37:5 *215:A 6 
3 *37:5 spare_xz[4] 6.405 
*END

*D_NET *38 0.00216752
*CONN
*P spare_xz[5] O
*I *251:A I *D sky130_fd_sc_hd__nand2_2
*I *238:LO O *D sky130_fd_sc_hd__conb_1
*CAP
1 spare_xz[5] 0.000420341
2 *251:A 0.000381265
3 *238:LO 6.46628e-05
4 *38:7 0.000866268
5 spare_xz[5] spare_xz[8] 0
6 *251:A spare_xz[8] 0
7 spare_xfqn[0] spare_xz[5] 0
8 spare_xfqn[1] *251:A 0
9 spare_xz[10] *251:A 0.000271776
10 *248:A *38:7 0.000163204
*RES
1 *238:LO *38:7 5.085 
2 *38:7 *251:A 10.095 
3 *38:7 spare_xz[5] 8.1 
*END

*D_NET *39 0.00130774
*CONN
*P spare_xz[6] O
*I *252:A I *D sky130_fd_sc_hd__nand2_2
*I *239:LO O *D sky130_fd_sc_hd__conb_1
*CAP
1 spare_xz[6] 0.000215581
2 *252:A 0.000274548
3 *239:LO 3.38751e-05
4 *39:7 0.000524004
5 *252:A *252:B 4.18603e-06
6 spare_xfq[1] spare_xz[6] 0
7 spare_xfq[1] *39:7 4.82863e-05
8 spare_xmx[1] spare_xz[6] 0
9 spare_xna[1] spare_xz[6] 4.05569e-05
10 spare_xna[1] *252:A 0.000139189
11 spare_xz[25] *252:A 0
12 *243:RESET_B *252:A 2.75145e-05
*RES
1 *239:LO *39:7 4.05 
2 *39:7 spare_xz[6] 3.75 
3 *39:7 *252:A 9 
*END

*D_NET *40 0.0046579
*CONN
*P spare_xz[7] O
*I *251:B I *D sky130_fd_sc_hd__nand2_2
*I *240:LO O *D sky130_fd_sc_hd__conb_1
*CAP
1 spare_xz[7] 0.000606337
2 *251:B 0.000654847
3 *240:LO 9.88365e-05
4 *40:5 0.00136002
5 spare_xfq[0] spare_xz[7] 0
6 spare_xfqn[0] *251:B 0.000401798
7 spare_xmx[1] *251:B 0
8 spare_xno[0] *251:B 0.000677726
9 spare_xno[0] *40:5 0.000237238
10 spare_xz[0] spare_xz[7] 0.000403384
11 spare_xz[10] *251:B 0
12 *244:D spare_xz[7] 0.000217714
*RES
1 *240:LO *40:5 3.775 
2 *40:5 spare_xz[7] 6.47403 
3 *40:5 *251:B 20.18 
*END

*D_NET *41 0.00531401
*CONN
*P spare_xz[8] O
*I *252:B I *D sky130_fd_sc_hd__nand2_2
*I *241:LO O *D sky130_fd_sc_hd__conb_1
*CAP
1 spare_xz[8] 0.00123262
2 *252:B 0.00134714
3 *241:LO 3.17377e-05
4 *41:5 0.00261149
5 spare_xib spare_xz[8] 0
6 spare_xz[14] spare_xz[8] 0
7 spare_xz[20] *252:B 5.51158e-05
8 spare_xz[4] spare_xz[8] 3.17314e-05
9 spare_xz[5] spare_xz[8] 0
10 *215:A spare_xz[8] 0
11 *249:A1 *252:B 0
12 *250:A0 spare_xz[8] 0
13 *251:A spare_xz[8] 0
14 *252:A *252:B 4.18603e-06
*RES
1 *241:LO *41:5 2.05 
2 *41:5 spare_xz[8] 15.8508 
3 *41:5 *252:B 26.36 
*END

*D_NET *42 0.00193309
*CONN
*P spare_xz[9] O
*I *253:A I *D sky130_fd_sc_hd__nor2_2
*I *242:LO O *D sky130_fd_sc_hd__conb_1
*CAP
1 spare_xz[9] 0.000430819
2 *253:A 0.000238593
3 *242:LO 0
4 *42:4 0.000669412
5 spare_xz[17] spare_xz[9] 0.00011989
6 spare_xz[25] spare_xz[9] 0
7 *253:B spare_xz[9] 1.03833e-05
8 *253:B *253:A 0.00046399
*RES
1 *242:LO *42:4 1.6 
2 *42:4 *253:A 6.535 
3 *42:4 spare_xz[9] 3.77117 
*END
