*SPEF "ieee 1481-1999"
*DESIGN "spare_logic_block"
*DATE "11:11:11 Fri 11 11, 1111"
*VENDOR "OpenRCX"
*PROGRAM "Parallel Extraction"
*VERSION "1.0"
*DESIGN_FLOW "NAME_SCOPE LOCAL" "PIN_CAP NONE"
*DIVIDER /
*DELIMITER :
*BUS_DELIMITER []
*T_UNIT 1 NS
*C_UNIT 1 PF
*R_UNIT 1 OHM
*L_UNIT 1 HENRY

*NAME_MAP
*1 spare_xfq[0]
*2 spare_xfq[1]
*3 spare_xfqn[0]
*4 spare_xfqn[1]
*5 spare_xi[0]
*6 spare_xi[1]
*7 spare_xi[2]
*8 spare_xi[3]
*9 spare_xib
*10 spare_xmx[0]
*11 spare_xmx[1]
*12 spare_xna[0]
*13 spare_xna[1]
*14 spare_xno[0]
*15 spare_xno[1]
*16 spare_xz[0]
*17 spare_xz[10]
*18 spare_xz[11]
*19 spare_xz[12]
*20 spare_xz[13]
*21 spare_xz[14]
*22 spare_xz[15]
*23 spare_xz[16]
*24 spare_xz[17]
*25 spare_xz[18]
*26 spare_xz[19]
*27 spare_xz[1]
*28 spare_xz[20]
*29 spare_xz[21]
*30 spare_xz[22]
*31 spare_xz[23]
*32 spare_xz[24]
*33 spare_xz[25]
*34 spare_xz[26]
*35 spare_xz[2]
*36 spare_xz[3]
*37 spare_xz[4]
*38 spare_xz[5]
*39 spare_xz[6]
*40 spare_xz[7]
*41 spare_xz[8]
*42 spare_xz[9]
*45 spare_logic1\[0\]
*46 spare_logic1\[10\]
*47 spare_logic1\[11\]
*48 spare_logic1\[12\]
*49 spare_logic1\[13\]
*50 spare_logic1\[14\]
*51 spare_logic1\[15\]
*52 spare_logic1\[16\]
*53 spare_logic1\[17\]
*54 spare_logic1\[18\]
*55 spare_logic1\[19\]
*56 spare_logic1\[1\]
*57 spare_logic1\[20\]
*58 spare_logic1\[21\]
*59 spare_logic1\[22\]
*60 spare_logic1\[23\]
*61 spare_logic1\[24\]
*62 spare_logic1\[25\]
*63 spare_logic1\[26\]
*64 spare_logic1\[2\]
*65 spare_logic1\[3\]
*66 spare_logic1\[4\]
*67 spare_logic1\[5\]
*68 spare_logic1\[6\]
*69 spare_logic1\[7\]
*70 spare_logic1\[8\]
*71 spare_logic1\[9\]
*72 FILLER_0_17
*73 FILLER_0_24
*74 FILLER_0_29
*75 FILLER_0_3
*76 FILLER_0_34
*77 FILLER_0_46
*78 FILLER_0_54
*79 FILLER_0_57
*80 FILLER_0_68
*81 FILLER_0_8
*82 FILLER_10_14
*83 FILLER_10_22
*84 FILLER_10_26
*85 FILLER_10_29
*86 FILLER_10_3
*87 FILLER_10_34
*88 FILLER_10_46
*89 FILLER_10_53
*90 FILLER_10_57
*91 FILLER_10_61
*92 FILLER_10_68
*93 FILLER_11_14
*94 FILLER_11_26
*95 FILLER_11_29
*96 FILLER_11_3
*97 FILLER_11_41
*98 FILLER_11_53
*99 FILLER_11_57
*100 FILLER_11_68
*101 FILLER_1_3
*102 FILLER_1_36
*103 FILLER_1_40
*104 FILLER_1_44
*105 FILLER_1_51
*106 FILLER_1_55
*107 FILLER_1_57
*108 FILLER_1_68
*109 FILLER_1_9
*110 FILLER_2_15
*111 FILLER_2_22
*112 FILLER_2_29
*113 FILLER_2_3
*114 FILLER_2_41
*115 FILLER_2_50
*116 FILLER_2_62
*117 FILLER_2_8
*118 FILLER_3_13
*119 FILLER_3_3
*120 FILLER_3_43
*121 FILLER_3_52
*122 FILLER_3_57
*123 FILLER_3_62
*124 FILLER_3_9
*125 FILLER_4_15
*126 FILLER_4_27
*127 FILLER_4_29
*128 FILLER_4_3
*129 FILLER_4_41
*130 FILLER_4_53
*131 FILLER_4_65
*132 FILLER_4_69
*133 FILLER_5_11
*134 FILLER_5_16
*135 FILLER_5_28
*136 FILLER_5_3
*137 FILLER_5_40
*138 FILLER_5_48
*139 FILLER_5_57
*140 FILLER_5_64
*141 FILLER_6_19
*142 FILLER_6_27
*143 FILLER_6_29
*144 FILLER_6_3
*145 FILLER_6_41
*146 FILLER_6_53
*147 FILLER_6_65
*148 FILLER_6_69
*149 FILLER_6_9
*150 FILLER_7_20
*151 FILLER_7_3
*152 FILLER_7_32
*153 FILLER_7_44
*154 FILLER_7_57
*155 FILLER_7_68
*156 FILLER_7_8
*157 FILLER_8_16
*158 FILLER_8_20
*159 FILLER_8_29
*160 FILLER_8_3
*161 FILLER_8_34
*162 FILLER_8_46
*163 FILLER_8_50
*164 FILLER_8_60
*165 FILLER_8_68
*166 FILLER_8_8
*167 FILLER_9_12
*168 FILLER_9_19
*169 FILLER_9_23
*170 FILLER_9_27
*171 FILLER_9_3
*172 FILLER_9_35
*173 FILLER_9_42
*174 FILLER_9_54
*175 FILLER_9_57
*176 FILLER_9_62
*177 PHY_0
*178 PHY_1
*179 PHY_10
*180 PHY_11
*181 PHY_12
*182 PHY_13
*183 PHY_14
*184 PHY_15
*185 PHY_16
*186 PHY_17
*187 PHY_18
*188 PHY_19
*189 PHY_2
*190 PHY_20
*191 PHY_21
*192 PHY_22
*193 PHY_23
*194 PHY_3
*195 PHY_4
*196 PHY_5
*197 PHY_6
*198 PHY_7
*199 PHY_8
*200 PHY_9
*201 TAP_24
*202 TAP_25
*203 TAP_26
*204 TAP_27
*205 TAP_28
*206 TAP_29
*207 TAP_30
*208 TAP_31
*209 TAP_32
*210 TAP_33
*211 TAP_34
*212 TAP_35
*213 TAP_36
*214 TAP_37
*215 spare_logic_biginv
*216 spare_logic_const\[0\]
*217 spare_logic_const\[10\]
*218 spare_logic_const\[11\]
*219 spare_logic_const\[12\]
*220 spare_logic_const\[13\]
*221 spare_logic_const\[14\]
*222 spare_logic_const\[15\]
*223 spare_logic_const\[16\]
*224 spare_logic_const\[17\]
*225 spare_logic_const\[18\]
*226 spare_logic_const\[19\]
*227 spare_logic_const\[1\]
*228 spare_logic_const\[20\]
*229 spare_logic_const\[21\]
*230 spare_logic_const\[22\]
*231 spare_logic_const\[23\]
*232 spare_logic_const\[24\]
*233 spare_logic_const\[25\]
*234 spare_logic_const\[26\]
*235 spare_logic_const\[2\]
*236 spare_logic_const\[3\]
*237 spare_logic_const\[4\]
*238 spare_logic_const\[5\]
*239 spare_logic_const\[6\]
*240 spare_logic_const\[7\]
*241 spare_logic_const\[8\]
*242 spare_logic_const\[9\]
*243 spare_logic_flop\[0\]
*244 spare_logic_flop\[1\]
*245 spare_logic_inv\[0\]
*246 spare_logic_inv\[1\]
*247 spare_logic_inv\[2\]
*248 spare_logic_inv\[3\]
*249 spare_logic_mux\[0\]
*250 spare_logic_mux\[1\]
*251 spare_logic_nand\[0\]
*252 spare_logic_nand\[1\]
*253 spare_logic_nor\[0\]
*254 spare_logic_nor\[1\]

*PORTS
spare_xfq[0] O
spare_xfq[1] O
spare_xfqn[0] O
spare_xfqn[1] O
spare_xi[0] O
spare_xi[1] O
spare_xi[2] O
spare_xi[3] O
spare_xib O
spare_xmx[0] O
spare_xmx[1] O
spare_xna[0] O
spare_xna[1] O
spare_xno[0] O
spare_xno[1] O
spare_xz[0] O
spare_xz[10] O
spare_xz[11] O
spare_xz[12] O
spare_xz[13] O
spare_xz[14] O
spare_xz[15] O
spare_xz[16] O
spare_xz[17] O
spare_xz[18] O
spare_xz[19] O
spare_xz[1] O
spare_xz[20] O
spare_xz[21] O
spare_xz[22] O
spare_xz[23] O
spare_xz[24] O
spare_xz[25] O
spare_xz[26] O
spare_xz[2] O
spare_xz[3] O
spare_xz[4] O
spare_xz[5] O
spare_xz[6] O
spare_xz[7] O
spare_xz[8] O
spare_xz[9] O

*D_NET *1 0.00206878
*CONN
*P spare_xfq[0] O
*I *243:Q O *D sky130_fd_sc_hd__dfbbp_1
*CAP
1 spare_xfq[0] 0.000847525
2 *243:Q 0.000847525
3 spare_xfq[0] spare_xz[15] 5.52238e-05
4 spare_xfq[0] spare_xz[16] 6.02211e-05
5 spare_xfq[0] spare_xz[7] 0
6 spare_xfq[0] *245:A 0.00025828
*RES
1 *243:Q spare_xfq[0] 22.7753 
*END

*D_NET *2 0.00239104
*CONN
*P spare_xfq[1] O
*I *244:Q O *D sky130_fd_sc_hd__dfbbp_1
*CAP
1 spare_xfq[1] 0.000740084
2 *244:Q 0.000740084
3 spare_xfq[1] spare_xi[0] 0.000701622
4 spare_xfq[1] spare_xz[6] 0
5 spare_xfq[1] *245:A 0.000154027
6 spare_xfq[1] *27:8 0
7 spare_xfq[1] *39:7 5.52238e-05
*RES
1 *244:Q spare_xfq[1] 28.1393 
*END

*D_NET *3 0.00405017
*CONN
*P spare_xfqn[0] O
*I *243:Q_N O *D sky130_fd_sc_hd__dfbbp_1
*CAP
1 spare_xfqn[0] 0.00154617
2 *243:Q_N 0.00154617
3 spare_xfqn[0] spare_xfqn[1] 0.000424704
4 spare_xfqn[0] spare_xmx[1] 0
5 spare_xfqn[0] spare_xna[0] 0
6 spare_xfqn[0] spare_xz[10] 0
7 spare_xfqn[0] spare_xz[15] 1.07719e-05
8 spare_xfqn[0] spare_xz[5] 0
9 spare_xfqn[0] *243:D 6.62868e-05
10 spare_xfqn[0] *243:RESET_B 4.04088e-05
11 spare_xfqn[0] *251:B 0.000415666
*RES
1 *243:Q_N spare_xfqn[0] 43.8357 
*END

*D_NET *4 0.00524987
*CONN
*P spare_xfqn[1] O
*I *244:Q_N O *D sky130_fd_sc_hd__dfbbp_1
*CAP
1 spare_xfqn[1] 0.00210615
2 *244:Q_N 0.00210615
3 spare_xfqn[1] spare_xib 6.38734e-05
4 spare_xfqn[1] spare_xno[1] 0.000102535
5 spare_xfqn[1] *243:CLK 0
6 spare_xfqn[1] *243:D 0.000318309
7 spare_xfqn[1] *243:SET_B 0
8 spare_xfqn[1] *251:A 0
9 spare_xfqn[1] *28:8 0.000128154
10 spare_xfqn[0] spare_xfqn[1] 0.000424704
*RES
1 *244:Q_N spare_xfqn[1] 41.4628 
*END

*D_NET *5 0.00274874
*CONN
*P spare_xi[0] O
*I *245:Y O *D sky130_fd_sc_hd__inv_2
*CAP
1 spare_xi[0] 0.00102356
2 *245:Y 0.00102356
3 spare_xi[0] spare_xi[1] 0
4 spare_xi[0] spare_xz[1] 0
5 spare_xfq[1] spare_xi[0] 0.000701622
*RES
1 *245:Y spare_xi[0] 34.1929 
*END

*D_NET *6 0.00148241
*CONN
*P spare_xi[1] O
*I *246:Y O *D sky130_fd_sc_hd__inv_2
*CAP
1 spare_xi[1] 0.000599646
2 *246:Y 0.000599646
3 spare_xi[1] spare_xna[1] 0
4 spare_xi[1] spare_xz[1] 0.000283116
5 spare_xi[0] spare_xi[1] 0
*RES
1 *246:Y spare_xi[1] 25.7638 
*END

*D_NET *7 0.00136483
*CONN
*P spare_xi[2] O
*I *247:Y O *D sky130_fd_sc_hd__inv_2
*CAP
1 spare_xi[2] 0.000575705
2 *247:Y 0.000575705
3 spare_xi[2] spare_xna[0] 0
4 spare_xi[2] spare_xz[11] 6.5185e-05
5 spare_xi[2] spare_xz[17] 8.57347e-05
6 spare_xi[2] spare_xz[3] 6.25043e-05
7 spare_xi[2] *249:S 0
*RES
1 *247:Y spare_xi[2] 24.7479 
*END

*D_NET *8 0.00252494
*CONN
*P spare_xi[3] O
*I *248:Y O *D sky130_fd_sc_hd__inv_2
*CAP
1 spare_xi[3] 0.00126247
2 *248:Y 0.00126247
3 spare_xi[3] spare_xz[18] 0
*RES
1 *248:Y spare_xi[3] 35.2464 
*END

*D_NET *9 0.00102189
*CONN
*P spare_xib O
*I *215:Y O *D sky130_fd_sc_hd__inv_8
*CAP
1 spare_xib 0.000479007
2 *215:Y 0.000479007
3 spare_xib spare_xz[14] 0
4 spare_xib spare_xz[18] 0
5 spare_xib spare_xz[8] 0
6 spare_xfqn[1] spare_xib 6.38734e-05
*RES
1 *215:Y spare_xib 21.3027 
*END

*D_NET *10 0.0018251
*CONN
*P spare_xmx[0] O
*I *249:X O *D sky130_fd_sc_hd__mux2_2
*CAP
1 spare_xmx[0] 0.000753307
2 *249:X 0.000753307
3 spare_xmx[0] spare_xz[11] 0
4 spare_xmx[0] spare_xz[2] 0.000252198
5 spare_xmx[0] *249:A0 0
6 spare_xmx[0] *249:S 6.62868e-05
7 spare_xmx[0] *253:B 0
*RES
1 *249:X spare_xmx[0] 27.5857 
*END

*D_NET *11 0.00370798
*CONN
*P spare_xmx[1] O
*I *250:X O *D sky130_fd_sc_hd__mux2_2
*CAP
1 spare_xmx[1] 0.00175688
2 *250:X 0.00175688
3 spare_xmx[1] spare_xz[6] 0
4 spare_xmx[1] *243:CLK 0.000194217
5 spare_xmx[1] *251:B 0
6 spare_xfqn[0] spare_xmx[1] 0
*RES
1 *250:X spare_xmx[1] 43.0857 
*END

*D_NET *12 0.00311594
*CONN
*P spare_xna[0] O
*I *251:Y O *D sky130_fd_sc_hd__nand2_2
*CAP
1 spare_xna[0] 0.00146753
2 *251:Y 0.00146753
3 spare_xna[0] spare_xz[10] 9.82693e-05
4 spare_xna[0] spare_xz[13] 8.26187e-05
5 spare_xna[0] spare_xz[2] 0
6 spare_xfqn[0] spare_xna[0] 0
7 spare_xi[2] spare_xna[0] 0
*RES
1 *251:Y spare_xna[0] 22.3378 
*END

*D_NET *13 0.00271792
*CONN
*P spare_xna[1] O
*I *252:Y O *D sky130_fd_sc_hd__nand2_2
*CAP
1 spare_xna[1] 0.00122155
2 *252:Y 0.00122155
3 spare_xna[1] spare_xz[21] 0.000100366
4 spare_xna[1] spare_xz[6] 3.91668e-05
5 spare_xna[1] *252:A 0.000135285
6 spare_xi[1] spare_xna[1] 0
*RES
1 *252:Y spare_xna[1] 25.7797 
*END

*D_NET *14 0.00465339
*CONN
*P spare_xno[0] O
*I *253:Y O *D sky130_fd_sc_hd__nor2_2
*CAP
1 spare_xno[0] 0.00174471
2 *253:Y 0.00174471
3 spare_xno[0] spare_xz[16] 0
4 spare_xno[0] spare_xz[19] 2.96089e-05
5 spare_xno[0] spare_xz[22] 0
6 spare_xno[0] *250:A1 0
7 spare_xno[0] *251:B 0.000777086
8 spare_xno[0] *30:10 8.59342e-05
9 spare_xno[0] *40:5 0.000271339
*RES
1 *253:Y spare_xno[0] 49.7286 
*END

*D_NET *15 0.000818565
*CONN
*P spare_xno[1] O
*I *254:Y O *D sky130_fd_sc_hd__nor2_2
*CAP
1 spare_xno[1] 0.000347824
2 *254:Y 0.000347824
3 spare_xno[1] spare_xz[12] 0
4 spare_xno[1] *250:A0 1.01912e-05
5 spare_xno[1] *254:B 1.01912e-05
6 spare_xfqn[1] spare_xno[1] 0.000102535
*RES
1 *254:Y spare_xno[1] 18.4111 
*END

*D_NET *16 0.00513871
*CONN
*P spare_xz[0] O
*I *245:A I *D sky130_fd_sc_hd__inv_2
*I *216:LO O *D sky130_fd_sc_hd__conb_1
*CAP
1 spare_xz[0] 0.000830384
2 *245:A 0.00084642
3 *216:LO 0.000138826
4 *16:7 0.00181563
5 spare_xz[0] spare_xz[12] 4.20227e-05
6 spare_xz[0] spare_xz[7] 0.000421663
7 spare_xz[0] *244:D 8.52844e-05
8 *245:A *244:D 0.000343282
9 *16:7 spare_xz[15] 0.000202891
10 spare_xfq[0] *245:A 0.00025828
11 spare_xfq[1] *245:A 0.000154027
*RES
1 *216:LO *16:7 17.2107 
2 *16:7 *245:A 28.8536 
3 *16:7 spare_xz[0] 10.261 
*END

*D_NET *17 0.00304323
*CONN
*P spare_xz[10] O
*I *254:A I *D sky130_fd_sc_hd__nor2_2
*I *217:LO O *D sky130_fd_sc_hd__conb_1
*CAP
1 spare_xz[10] 0.000903251
2 *254:A 0.000309527
3 *217:LO 0
4 *17:4 0.00121278
5 spare_xz[10] spare_xz[20] 0
6 spare_xz[10] *251:A 0.000287004
7 spare_xz[10] *251:B 0
8 *254:A *21:7 0.000232399
9 spare_xfqn[0] spare_xz[10] 0
10 spare_xna[0] spare_xz[10] 9.82693e-05
*RES
1 *217:LO *17:4 9.3 
2 *17:4 *254:A 15.3179 
3 *17:4 spare_xz[10] 22.1071 
*END

*D_NET *18 0.003996
*CONN
*P spare_xz[11] O
*I *253:B I *D sky130_fd_sc_hd__nor2_2
*I *218:LO O *D sky130_fd_sc_hd__conb_1
*CAP
1 spare_xz[11] 0.000818315
2 *253:B 0.000801641
3 *218:LO 0
4 *18:4 0.00161996
5 spare_xz[11] spare_xz[13] 3.46442e-05
6 spare_xz[11] spare_xz[3] 0
7 *253:B spare_xz[17] 2.28904e-05
8 *253:B spare_xz[20] 0
9 *253:B spare_xz[9] 1.0562e-05
10 *253:B *249:A0 0
11 *253:B *249:A1 0
12 *253:B *249:S 9.1799e-05
13 *253:B *253:A 0.000531005
14 spare_xi[2] spare_xz[11] 6.5185e-05
15 spare_xmx[0] spare_xz[11] 0
16 spare_xmx[0] *253:B 0
*RES
1 *218:LO *18:4 9.3 
2 *18:4 *253:B 34.7464 
3 *18:4 spare_xz[11] 18.6786 
*END

*D_NET *19 0.0017153
*CONN
*P spare_xz[12] O
*I *254:B I *D sky130_fd_sc_hd__nor2_2
*I *219:LO O *D sky130_fd_sc_hd__conb_1
*CAP
1 spare_xz[12] 0.000595541
2 *254:B 0.000236002
3 *219:LO 0
4 *19:5 0.000831542
5 spare_xz[12] spare_xz[18] 0
6 spare_xz[12] *250:A0 0
7 *254:B spare_xz[14] 0
8 *254:B spare_xz[18] 0
9 *254:B *250:A0 0
10 spare_xno[1] spare_xz[12] 0
11 spare_xno[1] *254:B 1.01912e-05
12 spare_xz[0] spare_xz[12] 4.20227e-05
*RES
1 *219:LO *19:5 13.8 
2 *19:5 spare_xz[12] 7.20262 
3 *19:5 *254:B 18.0143 
*END

*D_NET *20 0.00224736
*CONN
*P spare_xz[13] O
*I *249:A0 I *D sky130_fd_sc_hd__mux2_2
*I *220:LO O *D sky130_fd_sc_hd__conb_1
*CAP
1 spare_xz[13] 0.000297285
2 *249:A0 0.000619027
3 *220:LO 0
4 *20:4 0.000916312
5 spare_xz[13] spare_xz[2] 8.00458e-05
6 *249:A0 spare_xz[20] 0.000217427
7 *249:A0 spare_xz[2] 0
8 spare_xmx[0] *249:A0 0
9 spare_xna[0] spare_xz[13] 8.26187e-05
10 spare_xz[11] spare_xz[13] 3.46442e-05
11 *253:B *249:A0 0
*RES
1 *220:LO *20:4 9.3 
2 *20:4 *249:A0 30.3536 
3 *20:4 spare_xz[13] 11.6086 
*END

*D_NET *21 0.00261676
*CONN
*P spare_xz[14] O
*I *250:A0 I *D sky130_fd_sc_hd__mux2_2
*I *221:LO O *D sky130_fd_sc_hd__conb_1
*CAP
1 spare_xz[14] 0.000397228
2 *250:A0 0.00042933
3 *221:LO 0.000135737
4 *21:7 0.000962294
5 spare_xz[14] spare_xz[4] 0.000166858
6 spare_xz[14] spare_xz[8] 0
7 spare_xz[14] *215:A 0.000117607
8 *250:A0 spare_xz[8] 0
9 *250:A0 *250:A1 5.76121e-05
10 *250:A0 *250:S 0.000107503
11 spare_xib spare_xz[14] 0
12 spare_xno[1] *250:A0 1.01912e-05
13 spare_xz[12] *250:A0 0
14 *254:A *21:7 0.000232399
15 *254:B spare_xz[14] 0
16 *254:B *250:A0 0
*RES
1 *221:LO *21:7 16.8 
2 *21:7 *250:A0 22.2643 
3 *21:7 spare_xz[14] 9.01786 
*END

*D_NET *22 0.00720288
*CONN
*P spare_xz[15] O
*I *249:A1 I *D sky130_fd_sc_hd__mux2_2
*I *222:LO O *D sky130_fd_sc_hd__conb_1
*CAP
1 spare_xz[15] 0.00128075
2 *249:A1 0.00179828
3 *222:LO 0.000172186
4 *22:8 0.00325121
5 spare_xz[15] spare_xz[22] 0
6 *249:A1 spare_xz[20] 3.92854e-05
7 *249:A1 *243:SET_B 0
8 *249:A1 *244:D 0.000290738
9 *249:A1 *252:B 0
10 *22:8 *243:SET_B 0
11 *22:8 *244:D 0.000101545
12 spare_xfq[0] spare_xz[15] 5.52238e-05
13 spare_xfqn[0] spare_xz[15] 1.07719e-05
14 *253:B *249:A1 0
15 *16:7 spare_xz[15] 0.000202891
*RES
1 *222:LO *22:8 16.0857 
2 *22:8 spare_xz[15] 32.3036 
3 *22:8 *249:A1 48.1571 
*END

*D_NET *23 0.00274676
*CONN
*P spare_xz[16] O
*I *250:A1 I *D sky130_fd_sc_hd__mux2_2
*I *223:LO O *D sky130_fd_sc_hd__conb_1
*CAP
1 spare_xz[16] 0.000454295
2 *250:A1 0.000756673
3 *223:LO 0
4 *23:5 0.00121097
5 spare_xz[16] spare_xz[19] 0.000139273
6 spare_xz[16] *30:10 6.11593e-05
7 *250:A1 *30:10 6.55528e-06
8 spare_xfq[0] spare_xz[16] 6.02211e-05
9 spare_xno[0] spare_xz[16] 0
10 spare_xno[0] *250:A1 0
11 *250:A0 *250:A1 5.76121e-05
*RES
1 *223:LO *23:5 13.8 
2 *23:5 spare_xz[16] 8.71699 
3 *23:5 *250:A1 26.0321 
*END

*D_NET *24 0.00222945
*CONN
*P spare_xz[17] O
*I *249:S I *D sky130_fd_sc_hd__mux2_2
*I *224:LO O *D sky130_fd_sc_hd__conb_1
*CAP
1 spare_xz[17] 0.000428393
2 *249:S 0.000372058
3 *224:LO 0.000120949
4 *24:7 0.000921401
5 spare_xz[17] spare_xz[9] 0.000119936
6 spare_xi[2] spare_xz[17] 8.57347e-05
7 spare_xi[2] *249:S 0
8 spare_xmx[0] *249:S 6.62868e-05
9 *253:B spare_xz[17] 2.28904e-05
10 *253:B *249:S 9.1799e-05
*RES
1 *224:LO *24:7 15.1571 
2 *24:7 spare_xz[17] 5.50653 
3 *24:7 *249:S 21.1929 
*END

*D_NET *25 0.00260796
*CONN
*P spare_xz[18] O
*I *250:S I *D sky130_fd_sc_hd__mux2_2
*I *225:LO O *D sky130_fd_sc_hd__conb_1
*CAP
1 spare_xz[18] 0.000958432
2 *250:S 0.000291795
3 *225:LO 0
4 *25:4 0.00125023
5 *250:S *244:D 0
6 spare_xi[3] spare_xz[18] 0
7 spare_xib spare_xz[18] 0
8 spare_xz[12] spare_xz[18] 0
9 *250:A0 *250:S 0.000107503
10 *254:B spare_xz[18] 0
*RES
1 *225:LO *25:4 9.3 
2 *25:4 spare_xz[18] 22.3036 
3 *25:4 *250:S 23.7464 
*END

*D_NET *26 0.0046687
*CONN
*P spare_xz[19] O
*I *243:D I *D sky130_fd_sc_hd__dfbbp_1
*I *226:LO O *D sky130_fd_sc_hd__conb_1
*CAP
1 spare_xz[19] 0.00044793
2 *243:D 0.00124849
3 *226:LO 0
4 *26:4 0.00169642
5 *243:D *243:RESET_B 0.000170955
6 *243:D *243:SET_B 0.000138984
7 *243:D *244:RESET_B 0.000153047
8 *243:D *32:7 0.000230475
9 *243:D *34:7 2.89114e-05
10 spare_xfqn[0] *243:D 6.62868e-05
11 spare_xfqn[1] *243:D 0.000318309
12 spare_xno[0] spare_xz[19] 2.96089e-05
13 spare_xz[16] spare_xz[19] 0.000139273
*RES
1 *226:LO *26:4 9.3 
2 *26:4 spare_xz[19] 12.7699 
3 *26:4 *243:D 38.6036 
*END

*D_NET *27 0.000927876
*CONN
*P spare_xz[1] O
*I *246:A I *D sky130_fd_sc_hd__inv_2
*I *227:LO O *D sky130_fd_sc_hd__conb_1
*CAP
1 spare_xz[1] 0.000205169
2 *246:A 0
3 *227:LO 0.000117211
4 *27:8 0.00032238
5 spare_xfq[1] *27:8 0
6 spare_xi[0] spare_xz[1] 0
7 spare_xi[1] spare_xz[1] 0.000283116
*RES
1 *227:LO *27:8 20.2464 
2 *27:8 *246:A 9.3 
3 *27:8 spare_xz[1] 9.32143 
*END

*D_NET *28 0.00680516
*CONN
*P spare_xz[20] O
*I *244:D I *D sky130_fd_sc_hd__dfbbp_1
*I *228:LO O *D sky130_fd_sc_hd__conb_1
*CAP
1 spare_xz[20] 0.00137305
2 *244:D 0.00118585
3 *228:LO 6.70433e-05
4 *28:8 0.00262594
5 spare_xz[20] *252:B 5.35423e-05
6 *244:D spare_xz[7] 0.000235694
7 *244:D *243:SET_B 0
8 *244:D *244:SET_B 5.83304e-05
9 spare_xfqn[1] *28:8 0.000128154
10 spare_xz[0] *244:D 8.52844e-05
11 spare_xz[10] spare_xz[20] 0
12 *245:A *244:D 0.000343282
13 *249:A0 spare_xz[20] 0.000217427
14 *249:A1 spare_xz[20] 3.92854e-05
15 *249:A1 *244:D 0.000290738
16 *250:S *244:D 0
17 *253:B spare_xz[20] 0
18 *22:8 *244:D 0.000101545
*RES
1 *228:LO *28:8 19.9429 
2 *28:8 *244:D 41.1393 
3 *28:8 spare_xz[20] 25.8036 
*END

*D_NET *29 0.00287732
*CONN
*P spare_xz[21] O
*I *243:CLK I *D sky130_fd_sc_hd__dfbbp_1
*I *229:LO O *D sky130_fd_sc_hd__conb_1
*CAP
1 spare_xz[21] 0.000889463
2 *243:CLK 0.000270438
3 *229:LO 0
4 *29:4 0.0011599
5 spare_xz[21] spare_xz[25] 0.000262931
6 spare_xfqn[1] *243:CLK 0
7 spare_xmx[1] *243:CLK 0.000194217
8 spare_xna[1] spare_xz[21] 0.000100366
*RES
1 *229:LO *29:4 9.3 
2 *29:4 *243:CLK 23.0321 
3 *29:4 spare_xz[21] 10.7875 
*END

*D_NET *30 0.00220566
*CONN
*P spare_xz[22] O
*I *244:CLK I *D sky130_fd_sc_hd__dfbbp_1
*I *230:LO O *D sky130_fd_sc_hd__conb_1
*CAP
1 spare_xz[22] 0.000450386
2 *244:CLK 0.000215528
3 *230:LO 0.000360089
4 *30:10 0.001026
5 spare_xno[0] spare_xz[22] 0
6 spare_xno[0] *30:10 8.59342e-05
7 spare_xz[15] spare_xz[22] 0
8 spare_xz[16] *30:10 6.11593e-05
9 *250:A1 *30:10 6.55528e-06
*RES
1 *230:LO *30:10 25.3893 
2 *30:10 spare_xz[22] 12.5714 
3 *30:10 *244:CLK 12.7107 
*END

*D_NET *31 0.00207966
*CONN
*P spare_xz[23] O
*I *243:SET_B I *D sky130_fd_sc_hd__dfbbp_1
*I *231:LO O *D sky130_fd_sc_hd__conb_1
*CAP
1 spare_xz[23] 0.000271278
2 *243:SET_B 0.000541736
3 *231:LO 2.23854e-05
4 *31:5 0.0008354
5 spare_xz[23] spare_xz[24] 0
6 spare_xz[23] *32:7 0.000184745
7 *243:SET_B spare_xz[26] 2.8266e-06
8 *243:SET_B *244:RESET_B 6.98669e-05
9 *243:SET_B *244:SET_B 0
10 *243:SET_B *32:7 1.24368e-05
11 spare_xfqn[1] *243:SET_B 0
12 *243:D *243:SET_B 0.000138984
13 *244:D *243:SET_B 0
14 *249:A1 *243:SET_B 0
15 *22:8 *243:SET_B 0
*RES
1 *231:LO *31:5 9.72857 
2 *31:5 spare_xz[23] 9.875 
3 *31:5 *243:SET_B 19.3036 
*END

*D_NET *32 0.00136124
*CONN
*P spare_xz[24] O
*I *244:SET_B I *D sky130_fd_sc_hd__dfbbp_1
*I *232:LO O *D sky130_fd_sc_hd__conb_1
*CAP
1 spare_xz[24] 0.000253019
2 *244:SET_B 0.000137444
3 *232:LO 4.71624e-05
4 *32:7 0.000437625
5 spare_xz[24] spare_xz[26] 0
6 spare_xz[23] spare_xz[24] 0
7 spare_xz[23] *32:7 0.000184745
8 *243:D *32:7 0.000230475
9 *243:SET_B *244:SET_B 0
10 *243:SET_B *32:7 1.24368e-05
11 *244:D *244:SET_B 5.83304e-05
*RES
1 *232:LO *32:7 15.9786 
2 *32:7 spare_xz[24] 4.32143 
3 *32:7 *244:SET_B 7.05357 
*END

*D_NET *33 0.0039051
*CONN
*P spare_xz[25] O
*I *243:RESET_B I *D sky130_fd_sc_hd__dfbbp_1
*I *233:LO O *D sky130_fd_sc_hd__conb_1
*CAP
1 spare_xz[25] 0.000451145
2 *243:RESET_B 0.00124981
3 *233:LO 0
4 *33:4 0.00170095
5 spare_xz[25] spare_xz[9] 0
6 spare_xz[25] *252:A 0
7 *243:RESET_B *252:A 2.89016e-05
8 spare_xfqn[0] *243:RESET_B 4.04088e-05
9 spare_xz[21] spare_xz[25] 0.000262931
10 *243:D *243:RESET_B 0.000170955
*RES
1 *233:LO *33:4 9.3 
2 *33:4 spare_xz[25] 9.61559 
3 *33:4 *243:RESET_B 26.6393 
*END

*D_NET *34 0.000781082
*CONN
*P spare_xz[26] O
*I *244:RESET_B I *D sky130_fd_sc_hd__dfbbp_1
*I *234:LO O *D sky130_fd_sc_hd__conb_1
*CAP
1 spare_xz[26] 0.000160285
2 *244:RESET_B 7.68293e-05
3 *234:LO 2.61003e-05
4 *34:7 0.000263215
5 spare_xz[24] spare_xz[26] 0
6 *243:D *244:RESET_B 0.000153047
7 *243:D *34:7 2.89114e-05
8 *243:SET_B spare_xz[26] 2.8266e-06
9 *243:SET_B *244:RESET_B 6.98669e-05
*RES
1 *234:LO *34:7 14.3357 
2 *34:7 spare_xz[26] 2.94643 
3 *34:7 *244:RESET_B 16.3536 
*END

*D_NET *35 0.00217869
*CONN
*P spare_xz[2] O
*I *247:A I *D sky130_fd_sc_hd__inv_2
*I *235:LO O *D sky130_fd_sc_hd__conb_1
*CAP
1 spare_xz[2] 0.000705611
2 *247:A 6.02195e-05
3 *235:LO 3.80549e-05
4 *35:5 0.000803885
5 *247:A spare_xz[3] 0.000139637
6 *35:5 spare_xz[3] 9.90367e-05
7 spare_xmx[0] spare_xz[2] 0.000252198
8 spare_xna[0] spare_xz[2] 0
9 spare_xz[13] spare_xz[2] 8.00458e-05
10 *249:A0 spare_xz[2] 0
*RES
1 *235:LO *35:5 10.2464 
2 *35:5 spare_xz[2] 15.7744 
3 *35:5 *247:A 10.6571 
*END

*D_NET *36 0.00380675
*CONN
*P spare_xz[3] O
*I *248:A I *D sky130_fd_sc_hd__inv_2
*I *236:LO O *D sky130_fd_sc_hd__conb_1
*CAP
1 spare_xz[3] 0.00101191
2 *248:A 0.00064754
3 *236:LO 0
4 *36:4 0.00165945
5 *248:A *38:7 0.000186669
6 spare_xi[2] spare_xz[3] 6.25043e-05
7 spare_xz[11] spare_xz[3] 0
8 *247:A spare_xz[3] 0.000139637
9 *35:5 spare_xz[3] 9.90367e-05
*RES
1 *236:LO *36:4 9.3 
2 *36:4 *248:A 20.1214 
3 *36:4 spare_xz[3] 22.8214 
*END

*D_NET *37 0.00108732
*CONN
*P spare_xz[4] O
*I *215:A I *D sky130_fd_sc_hd__inv_8
*I *237:LO O *D sky130_fd_sc_hd__conb_1
*CAP
1 spare_xz[4] 0.000260328
2 *215:A 0.000124509
3 *237:LO 0
4 *37:5 0.000384837
5 spare_xz[4] spare_xz[8] 3.31758e-05
6 *215:A spare_xz[8] 0
7 spare_xz[14] spare_xz[4] 0.000166858
8 spare_xz[14] *215:A 0.000117607
*RES
1 *237:LO *37:5 13.8 
2 *37:5 *215:A 16.6571 
3 *37:5 spare_xz[4] 7.625 
*END

*D_NET *38 0.00236854
*CONN
*P spare_xz[5] O
*I *251:A I *D sky130_fd_sc_hd__nand2_2
*I *238:LO O *D sky130_fd_sc_hd__conb_1
*CAP
1 spare_xz[5] 0.000456364
2 *251:A 0.000419792
3 *238:LO 7.12797e-05
4 *38:7 0.000947436
5 spare_xz[5] spare_xz[8] 0
6 *251:A spare_xz[8] 0
7 spare_xfqn[0] spare_xz[5] 0
8 spare_xfqn[1] *251:A 0
9 spare_xz[10] *251:A 0.000287004
10 *248:A *38:7 0.000186669
*RES
1 *238:LO *38:7 15.5679 
2 *38:7 *251:A 21.5321 
3 *38:7 spare_xz[5] 9.64286 
*END

*D_NET *39 0.00143175
*CONN
*P spare_xz[6] O
*I *252:A I *D sky130_fd_sc_hd__nand2_2
*I *239:LO O *D sky130_fd_sc_hd__conb_1
*CAP
1 spare_xz[6] 0.000236533
2 *252:A 0.000308751
3 *239:LO 3.92359e-05
4 *39:7 0.000584519
5 *252:A *252:B 4.1331e-06
6 spare_xfq[1] spare_xz[6] 0
7 spare_xfq[1] *39:7 5.52238e-05
8 spare_xmx[1] spare_xz[6] 0
9 spare_xna[1] spare_xz[6] 3.91668e-05
10 spare_xna[1] *252:A 0.000135285
11 spare_xz[25] *252:A 0
12 *243:RESET_B *252:A 2.89016e-05
*RES
1 *239:LO *39:7 14.3357 
2 *39:7 spare_xz[6] 4.46429 
3 *39:7 *252:A 20.2286 
*END

*D_NET *40 0.00511792
*CONN
*P spare_xz[7] O
*I *251:B I *D sky130_fd_sc_hd__nand2_2
*I *240:LO O *D sky130_fd_sc_hd__conb_1
*CAP
1 spare_xz[7] 0.000658544
2 *251:B 0.000729717
3 *240:LO 0.000109972
4 *40:5 0.00149823
5 spare_xfq[0] spare_xz[7] 0
6 spare_xfqn[0] *251:B 0.000415666
7 spare_xmx[1] *251:B 0
8 spare_xno[0] *251:B 0.000777086
9 spare_xno[0] *40:5 0.000271339
10 spare_xz[0] spare_xz[7] 0.000421663
11 spare_xz[10] *251:B 0
12 *244:D spare_xz[7] 0.000235694
*RES
1 *240:LO *40:5 11.8893 
2 *40:5 spare_xz[7] 12.7081 
3 *40:5 *251:B 35.6571 
*END

*D_NET *41 0.00575276
*CONN
*P spare_xz[8] O
*I *252:B I *D sky130_fd_sc_hd__nand2_2
*I *241:LO O *D sky130_fd_sc_hd__conb_1
*CAP
1 spare_xz[8] 0.0013307
2 *252:B 0.00146585
3 *241:LO 3.44045e-05
4 *41:5 0.00283096
5 spare_xib spare_xz[8] 0
6 spare_xz[14] spare_xz[8] 0
7 spare_xz[20] *252:B 5.35423e-05
8 spare_xz[4] spare_xz[8] 3.31758e-05
9 spare_xz[5] spare_xz[8] 0
10 *215:A spare_xz[8] 0
11 *249:A1 *252:B 0
12 *250:A0 spare_xz[8] 0
13 *251:A spare_xz[8] 0
14 *252:A *252:B 4.1331e-06
*RES
1 *241:LO *41:5 9.83571 
2 *41:5 spare_xz[8] 23.8681 
3 *41:5 *252:B 43.0143 
*END

*D_NET *42 0.00214872
*CONN
*P spare_xz[9] O
*I *253:A I *D sky130_fd_sc_hd__nor2_2
*I *242:LO O *D sky130_fd_sc_hd__conb_1
*CAP
1 spare_xz[9] 0.000480507
2 *253:A 0.000263101
3 *242:LO 0
4 *42:4 0.000743607
5 spare_xz[17] spare_xz[9] 0.000119936
6 spare_xz[25] spare_xz[9] 0
7 *253:B spare_xz[9] 1.0562e-05
8 *253:B *253:A 0.000531005
*RES
1 *242:LO *42:4 9.3 
2 *42:4 *253:A 15.175 
3 *42:4 spare_xz[9] 9.47145 
*END
