*SPEF "ieee 1481-1999"
*DESIGN "spare_logic_block"
*DATE "11:11:11 Fri 11 11, 1111"
*VENDOR "OpenRCX"
*PROGRAM "Parallel Extraction"
*VERSION "1.0"
*DESIGN_FLOW "NAME_SCOPE LOCAL" "PIN_CAP NONE"
*DIVIDER /
*DELIMITER :
*BUS_DELIMITER []
*T_UNIT 1 NS
*C_UNIT 1 PF
*R_UNIT 1 OHM
*L_UNIT 1 HENRY

*NAME_MAP
*1 spare_xfq[0]
*2 spare_xfq[1]
*3 spare_xfqn[0]
*4 spare_xfqn[1]
*5 spare_xi[0]
*6 spare_xi[1]
*7 spare_xi[2]
*8 spare_xi[3]
*9 spare_xib
*10 spare_xmx[0]
*11 spare_xmx[1]
*12 spare_xna[0]
*13 spare_xna[1]
*14 spare_xno[0]
*15 spare_xno[1]
*16 spare_xz[0]
*17 spare_xz[10]
*18 spare_xz[11]
*19 spare_xz[12]
*20 spare_xz[13]
*21 spare_xz[14]
*22 spare_xz[15]
*23 spare_xz[16]
*24 spare_xz[17]
*25 spare_xz[18]
*26 spare_xz[19]
*27 spare_xz[1]
*28 spare_xz[20]
*29 spare_xz[21]
*30 spare_xz[22]
*31 spare_xz[23]
*32 spare_xz[24]
*33 spare_xz[25]
*34 spare_xz[26]
*35 spare_xz[2]
*36 spare_xz[3]
*37 spare_xz[4]
*38 spare_xz[5]
*39 spare_xz[6]
*40 spare_xz[7]
*41 spare_xz[8]
*42 spare_xz[9]
*45 spare_logic1\[0\]
*46 spare_logic1\[10\]
*47 spare_logic1\[11\]
*48 spare_logic1\[12\]
*49 spare_logic1\[13\]
*50 spare_logic1\[14\]
*51 spare_logic1\[15\]
*52 spare_logic1\[16\]
*53 spare_logic1\[17\]
*54 spare_logic1\[18\]
*55 spare_logic1\[19\]
*56 spare_logic1\[1\]
*57 spare_logic1\[20\]
*58 spare_logic1\[21\]
*59 spare_logic1\[22\]
*60 spare_logic1\[23\]
*61 spare_logic1\[24\]
*62 spare_logic1\[25\]
*63 spare_logic1\[26\]
*64 spare_logic1\[2\]
*65 spare_logic1\[3\]
*66 spare_logic1\[4\]
*67 spare_logic1\[5\]
*68 spare_logic1\[6\]
*69 spare_logic1\[7\]
*70 spare_logic1\[8\]
*71 spare_logic1\[9\]
*72 FILLER_0_15
*73 FILLER_0_24
*74 FILLER_0_29
*75 FILLER_0_3
*76 FILLER_0_34
*77 FILLER_0_42
*78 FILLER_0_47
*79 FILLER_0_55
*80 FILLER_0_57
*81 FILLER_0_66
*82 FILLER_10_14
*83 FILLER_10_21
*84 FILLER_10_27
*85 FILLER_10_3
*86 FILLER_10_34
*87 FILLER_10_46
*88 FILLER_10_52
*89 FILLER_10_59
*90 FILLER_10_66
*91 FILLER_11_15
*92 FILLER_11_27
*93 FILLER_11_29
*94 FILLER_11_3
*95 FILLER_11_41
*96 FILLER_11_53
*97 FILLER_11_57
*98 FILLER_11_66
*99 FILLER_1_3
*100 FILLER_1_38
*101 FILLER_1_44
*102 FILLER_1_48
*103 FILLER_1_62
*104 FILLER_1_8
*105 FILLER_2_15
*106 FILLER_2_22
*107 FILLER_2_29
*108 FILLER_2_3
*109 FILLER_2_41
*110 FILLER_2_47
*111 FILLER_2_54
*112 FILLER_2_62
*113 FILLER_2_66
*114 FILLER_2_8
*115 FILLER_3_3
*116 FILLER_3_35
*117 FILLER_3_47
*118 FILLER_3_55
*119 FILLER_3_57
*120 FILLER_3_66
*121 FILLER_4_20
*122 FILLER_4_29
*123 FILLER_4_3
*124 FILLER_4_41
*125 FILLER_4_53
*126 FILLER_4_57
*127 FILLER_4_61
*128 FILLER_4_69
*129 FILLER_4_8
*130 FILLER_5_12
*131 FILLER_5_19
*132 FILLER_5_31
*133 FILLER_5_43
*134 FILLER_5_52
*135 FILLER_5_57
*136 FILLER_5_66
*137 FILLER_6_10
*138 FILLER_6_17
*139 FILLER_6_25
*140 FILLER_6_29
*141 FILLER_6_3
*142 FILLER_6_41
*143 FILLER_6_53
*144 FILLER_6_59
*145 FILLER_6_66
*146 FILLER_7_15
*147 FILLER_7_27
*148 FILLER_7_3
*149 FILLER_7_39
*150 FILLER_7_51
*151 FILLER_7_55
*152 FILLER_7_57
*153 FILLER_7_61
*154 FILLER_7_69
*155 FILLER_8_20
*156 FILLER_8_29
*157 FILLER_8_3
*158 FILLER_8_41
*159 FILLER_8_53
*160 FILLER_8_66
*161 FILLER_8_8
*162 FILLER_9_16
*163 FILLER_9_20
*164 FILLER_9_24
*165 FILLER_9_3
*166 FILLER_9_36
*167 FILLER_9_48
*168 FILLER_9_57
*169 FILLER_9_63
*170 FILLER_9_69
*171 FILLER_9_9
*172 PHY_0
*173 PHY_1
*174 PHY_10
*175 PHY_11
*176 PHY_12
*177 PHY_13
*178 PHY_14
*179 PHY_15
*180 PHY_16
*181 PHY_17
*182 PHY_18
*183 PHY_19
*184 PHY_2
*185 PHY_20
*186 PHY_21
*187 PHY_22
*188 PHY_23
*189 PHY_3
*190 PHY_4
*191 PHY_5
*192 PHY_6
*193 PHY_7
*194 PHY_8
*195 PHY_9
*196 TAP_24
*197 TAP_25
*198 TAP_26
*199 TAP_27
*200 TAP_28
*201 TAP_29
*202 TAP_30
*203 TAP_31
*204 TAP_32
*205 TAP_33
*206 TAP_34
*207 TAP_35
*208 TAP_36
*209 TAP_37
*210 spare_logic_biginv
*211 spare_logic_const\[0\]
*212 spare_logic_const\[10\]
*213 spare_logic_const\[11\]
*214 spare_logic_const\[12\]
*215 spare_logic_const\[13\]
*216 spare_logic_const\[14\]
*217 spare_logic_const\[15\]
*218 spare_logic_const\[16\]
*219 spare_logic_const\[17\]
*220 spare_logic_const\[18\]
*221 spare_logic_const\[19\]
*222 spare_logic_const\[1\]
*223 spare_logic_const\[20\]
*224 spare_logic_const\[21\]
*225 spare_logic_const\[22\]
*226 spare_logic_const\[23\]
*227 spare_logic_const\[24\]
*228 spare_logic_const\[25\]
*229 spare_logic_const\[26\]
*230 spare_logic_const\[2\]
*231 spare_logic_const\[3\]
*232 spare_logic_const\[4\]
*233 spare_logic_const\[5\]
*234 spare_logic_const\[6\]
*235 spare_logic_const\[7\]
*236 spare_logic_const\[8\]
*237 spare_logic_const\[9\]
*238 spare_logic_flop\[0\]
*239 spare_logic_flop\[1\]
*240 spare_logic_inv\[0\]
*241 spare_logic_inv\[1\]
*242 spare_logic_inv\[2\]
*243 spare_logic_inv\[3\]
*244 spare_logic_mux\[0\]
*245 spare_logic_mux\[1\]
*246 spare_logic_nand\[0\]
*247 spare_logic_nand\[1\]
*248 spare_logic_nor\[0\]
*249 spare_logic_nor\[1\]

*PORTS
spare_xfq[0] O
spare_xfq[1] O
spare_xfqn[0] O
spare_xfqn[1] O
spare_xi[0] O
spare_xi[1] O
spare_xi[2] O
spare_xi[3] O
spare_xib O
spare_xmx[0] O
spare_xmx[1] O
spare_xna[0] O
spare_xna[1] O
spare_xno[0] O
spare_xno[1] O
spare_xz[0] O
spare_xz[10] O
spare_xz[11] O
spare_xz[12] O
spare_xz[13] O
spare_xz[14] O
spare_xz[15] O
spare_xz[16] O
spare_xz[17] O
spare_xz[18] O
spare_xz[19] O
spare_xz[1] O
spare_xz[20] O
spare_xz[21] O
spare_xz[22] O
spare_xz[23] O
spare_xz[24] O
spare_xz[25] O
spare_xz[26] O
spare_xz[2] O
spare_xz[3] O
spare_xz[4] O
spare_xz[5] O
spare_xz[6] O
spare_xz[7] O
spare_xz[8] O
spare_xz[9] O

*D_NET *1 0.00318743
*CONN
*P spare_xfq[0] O
*I *238:Q O *D sky130_fd_sc_hd__dfbbp_1
*CAP
1 spare_xfq[0] 0.00143288
2 *238:Q 0.00143288
3 spare_xfq[0] spare_xz[16] 0.000152331
4 spare_xfq[0] spare_xz[21] 4.61962e-05
5 spare_xfq[0] spare_xz[7] 0
6 spare_xfq[0] *238:RESET_B 1.43832e-05
7 spare_xfq[0] *4:13 0.000108765
*RES
1 *238:Q spare_xfq[0] 27.0419 
*END

*D_NET *2 0.00194441
*CONN
*P spare_xfq[1] O
*I *239:Q O *D sky130_fd_sc_hd__dfbbp_1
*CAP
1 spare_xfq[1] 0.000660358
2 *239:Q 0.000660358
3 spare_xfq[1] spare_xna[1] 3.72267e-05
4 spare_xfq[1] *247:A 1.00766e-05
5 spare_xfq[1] *247:B 0.000362285
6 spare_xfq[1] *28:8 0.000214105
*RES
1 *239:Q spare_xfq[1] 32.0865 
*END

*D_NET *3 0.00387873
*CONN
*P spare_xfqn[0] O
*I *238:Q_N O *D sky130_fd_sc_hd__dfbbp_1
*CAP
1 spare_xfqn[0] 0.00103147
2 *238:Q_N 0.00103147
3 spare_xfqn[0] spare_xz[10] 0.000226853
4 spare_xfqn[0] *238:RESET_B 0.000132467
5 spare_xfqn[0] *28:26 0
6 spare_xfqn[0] *41:25 0.00145648
*RES
1 *238:Q_N spare_xfqn[0] 48.2673 
*END

*D_NET *4 0.00595762
*CONN
*P spare_xfqn[1] O
*I *239:Q_N O *D sky130_fd_sc_hd__dfbbp_1
*CAP
1 spare_xfqn[1] 0.000900678
2 *239:Q_N 0.00101053
3 *4:13 0.00191121
4 spare_xfqn[1] spare_xib 5.57117e-05
5 spare_xfqn[1] spare_xno[1] 5.13168e-05
6 *4:13 spare_xna[0] 0.000155415
7 *4:13 spare_xz[0] 2.86353e-06
8 *4:13 spare_xz[21] 4.15201e-05
9 *4:13 *239:D 9.43222e-06
10 *4:13 *239:RESET_B 0
11 *4:13 *246:B 0
12 *4:13 *41:8 5.71992e-05
13 *4:13 *41:25 0.00165298
14 spare_xfq[0] *4:13 0.000108765
*RES
1 *239:Q_N *4:13 48.6751 
2 *4:13 spare_xfqn[1] 2.77859 
*END

*D_NET *5 0.00172942
*CONN
*P spare_xi[0] O
*I *240:Y O *D sky130_fd_sc_hd__inv_2
*CAP
1 spare_xi[0] 0.00086471
2 *240:Y 0.00086471
3 spare_xi[0] spare_xz[1] 0
4 spare_xi[0] *241:A 0
5 spare_xi[0] *6:7 0
*RES
1 *240:Y spare_xi[0] 31.6657 
*END

*D_NET *6 0.00214346
*CONN
*P spare_xi[1] O
*I *241:Y O *D sky130_fd_sc_hd__inv_2
*CAP
1 spare_xi[1] 0.000126267
2 *241:Y 0.00034142
3 *6:8 0.00068171
4 *6:7 0.000896863
5 spare_xi[1] spare_xna[1] 0
6 *6:7 *241:A 9.72058e-05
7 spare_xi[0] *6:7 0
*RES
1 *241:Y *6:7 24.2131 
2 *6:7 *6:8 938.708 
3 *6:8 spare_xi[1] 17.8657 
*END

*D_NET *7 0.00175983
*CONN
*P spare_xi[2] O
*I *242:Y O *D sky130_fd_sc_hd__inv_2
*CAP
1 spare_xi[2] 0.00010657
2 *242:Y 0.000332308
3 *7:8 0.0004609
4 *7:7 0.000686638
5 spare_xi[2] spare_xna[0] 0
6 spare_xi[2] spare_xz[11] 7.64213e-06
7 spare_xi[2] spare_xz[17] 3.4849e-05
8 *7:7 spare_xz[3] 0
9 *7:7 *35:17 0.00013092
*RES
1 *242:Y *7:7 24.2131 
2 *7:7 *7:8 591.038 
3 *7:8 spare_xi[2] 17.8657 
*END

*D_NET *8 0.00661909
*CONN
*P spare_xi[3] O
*I *243:Y O *D sky130_fd_sc_hd__inv_2
*CAP
1 spare_xi[3] 0.000628529
2 *243:Y 0.000229523
3 *8:11 0.00284899
4 *8:8 0.00244999
5 spare_xi[3] spare_xz[18] 0
6 *8:8 spare_xz[10] 0
7 *8:8 spare_xz[20] 0.000462058
*RES
1 *243:Y *8:8 26.3099 
2 *8:8 *8:11 39.0542 
3 *8:11 spare_xi[3] 17.7337 
*END

*D_NET *9 0.000952727
*CONN
*P spare_xib O
*I *210:Y O *D sky130_fd_sc_hd__inv_8
*CAP
1 spare_xib 0.000448508
2 *210:Y 0.000448508
3 spare_xib spare_xz[14] 0
4 spare_xib spare_xz[18] 0
5 spare_xib spare_xz[8] 0
6 spare_xfqn[1] spare_xib 5.57117e-05
*RES
1 *210:Y spare_xib 22.4772 
*END

*D_NET *10 0.00144434
*CONN
*P spare_xmx[0] O
*I *244:X O *D sky130_fd_sc_hd__mux2_2
*CAP
1 spare_xmx[0] 0.000563694
2 *244:X 0.000563694
3 spare_xmx[0] spare_xz[11] 0
4 spare_xmx[0] spare_xz[13] 8.55049e-05
5 spare_xmx[0] *244:A0 7.82128e-05
6 spare_xmx[0] *36:11 0.00015324
*RES
1 *244:X spare_xmx[0] 29.0646 
*END

*D_NET *11 0.00591971
*CONN
*P spare_xmx[1] O
*I *245:X O *D sky130_fd_sc_hd__mux2_2
*CAP
1 spare_xmx[1] 0.000166659
2 *245:X 0.00157429
3 *11:10 0.00174095
4 spare_xmx[1] spare_xz[6] 0
5 *11:10 *238:RESET_B 3.27828e-05
6 *11:10 *14:7 0.00158784
7 *11:10 *28:8 7.45478e-05
8 *11:10 *28:26 0.00063379
9 *11:10 *33:8 0.000108858
10 *11:10 *39:6 0
*RES
1 *245:X *11:10 48.2876 
2 *11:10 spare_xmx[1] 4.23802 
*END

*D_NET *12 0.00290785
*CONN
*P spare_xna[0] O
*I *246:Y O *D sky130_fd_sc_hd__nand2_2
*CAP
1 spare_xna[0] 0.00131754
2 *246:Y 0.00131754
3 spare_xna[0] spare_xz[13] 0.000112597
4 spare_xna[0] *41:25 4.75721e-06
5 spare_xi[2] spare_xna[0] 0
6 *4:13 spare_xna[0] 0.000155415
*RES
1 *246:Y spare_xna[0] 21.0018 
*END

*D_NET *13 0.00129207
*CONN
*P spare_xna[1] O
*I *247:Y O *D sky130_fd_sc_hd__nand2_2
*CAP
1 spare_xna[1] 0.00060201
2 *247:Y 0.00060201
3 spare_xna[1] spare_xz[21] 5.08239e-05
4 spare_xfq[1] spare_xna[1] 3.72267e-05
5 spare_xi[1] spare_xna[1] 0
*RES
1 *247:Y spare_xna[1] 21.3516 
*END

*D_NET *14 0.00648411
*CONN
*P spare_xno[0] O
*I *248:Y O *D sky130_fd_sc_hd__nor2_2
*CAP
1 spare_xno[0] 0.000840131
2 *248:Y 0.000933231
3 *14:7 0.00177336
4 spare_xno[0] spare_xz[19] 1.53148e-05
5 spare_xno[0] spare_xz[22] 0
6 spare_xno[0] *238:D 0
7 *14:7 spare_xz[0] 0.000241006
8 *14:7 spare_xz[18] 6.92597e-05
9 *14:7 *245:A0 5.31465e-05
10 *14:7 *245:A1 0.000122661
11 *14:7 *246:B 0.000244519
12 *14:7 *22:13 0
13 *14:7 *40:5 4.89251e-05
14 *14:7 *42:7 0.000554715
15 *11:10 *14:7 0.00158784
*RES
1 *248:Y *14:7 48.858 
2 *14:7 spare_xno[0] 23.8404 
*END

*D_NET *15 0.000582291
*CONN
*P spare_xno[1] O
*I *249:Y O *D sky130_fd_sc_hd__nor2_2
*CAP
1 spare_xno[1] 0.000255385
2 *249:Y 0.000255385
3 spare_xno[1] spare_xz[12] 0
4 spare_xno[1] *249:B 2.02035e-05
5 spare_xfqn[1] spare_xno[1] 5.13168e-05
*RES
1 *249:Y spare_xno[1] 18.2481 
*END

*D_NET *16 0.00553956
*CONN
*P spare_xz[0] O
*I *240:A I *D sky130_fd_sc_hd__inv_2
*I *211:LO O *D sky130_fd_sc_hd__conb_1
*CAP
1 spare_xz[0] 0.00167052
2 *240:A 0.000445172
3 *211:LO 0
4 *16:5 0.00211569
5 spare_xz[0] spare_xz[12] 3.24342e-05
6 spare_xz[0] spare_xz[7] 0.000128216
7 spare_xz[0] spare_xz[9] 0
8 spare_xz[0] *246:B 4.20184e-06
9 spare_xz[0] *22:10 0.000154469
10 spare_xz[0] *28:26 0.00053002
11 spare_xz[0] *42:7 0.000157767
12 *240:A *22:10 5.71992e-05
13 *4:13 spare_xz[0] 2.86353e-06
14 *14:7 spare_xz[0] 0.000241006
*RES
1 *211:LO *16:5 13.7491 
2 *16:5 *240:A 24.7517 
3 *16:5 spare_xz[0] 33.307 
*END

*D_NET *17 0.00292957
*CONN
*P spare_xz[10] O
*I *249:A I *D sky130_fd_sc_hd__nor2_2
*I *212:LO O *D sky130_fd_sc_hd__conb_1
*CAP
1 spare_xz[10] 0.00114028
2 *249:A 0.000151684
3 *212:LO 0
4 *17:4 0.00129196
5 spare_xz[10] spare_xz[20] 0
6 spare_xz[10] *38:8 0.000118792
7 spare_xz[10] *41:25 0
8 spare_xfqn[0] spare_xz[10] 0.000226853
9 *8:8 spare_xz[10] 0
*RES
1 *212:LO *17:4 9.24915 
2 *17:4 *249:A 12.7697 
3 *17:4 spare_xz[10] 36.5707 
*END

*D_NET *18 0.00320194
*CONN
*P spare_xz[11] O
*I *248:B I *D sky130_fd_sc_hd__nor2_2
*I *213:LO O *D sky130_fd_sc_hd__conb_1
*CAP
1 spare_xz[11] 0.00136943
2 *248:B 0.000206687
3 *213:LO 0
4 *18:4 0.00157612
5 spare_xz[11] spare_xz[2] 8.95978e-06
6 spare_xz[11] spare_xz[3] 0
7 *248:B *22:10 0
8 *248:B *42:7 3.30997e-05
9 spare_xi[2] spare_xz[11] 7.64213e-06
10 spare_xmx[0] spare_xz[11] 0
*RES
1 *213:LO *18:4 9.24915 
2 *18:4 *248:B 23.4595 
3 *18:4 spare_xz[11] 30.716 
*END

*D_NET *19 0.00145546
*CONN
*P spare_xz[12] O
*I *249:B I *D sky130_fd_sc_hd__nor2_2
*I *214:LO O *D sky130_fd_sc_hd__conb_1
*CAP
1 spare_xz[12] 0.000559557
2 *249:B 0.000141856
3 *214:LO 0
4 *19:5 0.000701413
5 spare_xz[12] spare_xz[14] 0
6 spare_xz[12] spare_xz[18] 0
7 *249:B spare_xz[14] 0
8 *249:B spare_xz[18] 0
9 spare_xno[1] spare_xz[12] 0
10 spare_xno[1] *249:B 2.02035e-05
11 spare_xz[0] spare_xz[12] 3.24342e-05
*RES
1 *214:LO *19:5 13.7491 
2 *19:5 spare_xz[12] 8.22342 
3 *19:5 *249:B 17.6574 
*END

*D_NET *20 0.0024305
*CONN
*P spare_xz[13] O
*I *244:A0 I *D sky130_fd_sc_hd__mux2_2
*I *215:LO O *D sky130_fd_sc_hd__conb_1
*CAP
1 spare_xz[13] 0.000636979
2 *244:A0 0.000281296
3 *215:LO 2.36273e-05
4 *20:7 0.000941902
5 spare_xz[13] spare_xz[2] 3.59102e-05
6 spare_xz[13] *35:9 0
7 *244:A0 *36:11 0.00015324
8 *20:7 spare_xz[3] 1.61631e-05
9 *20:7 *243:A 6.50727e-05
10 spare_xmx[0] spare_xz[13] 8.55049e-05
11 spare_xmx[0] *244:A0 7.82128e-05
12 spare_xna[0] spare_xz[13] 0.000112597
*RES
1 *215:LO *20:7 14.4725 
2 *20:7 *244:A0 21.7028 
3 *20:7 spare_xz[13] 8.56929 
*END

*D_NET *21 0.00253156
*CONN
*P spare_xz[14] O
*I *245:A0 I *D sky130_fd_sc_hd__mux2_2
*I *216:LO O *D sky130_fd_sc_hd__conb_1
*CAP
1 spare_xz[14] 0.000871457
2 *245:A0 0.000212984
3 *216:LO 8.14274e-05
4 *21:7 0.00116587
5 spare_xz[14] spare_xz[4] 0
6 *245:A0 *245:A1 0.000118166
7 *245:A0 *25:10 0
8 *21:7 *25:10 2.85139e-05
9 spare_xib spare_xz[14] 0
10 spare_xz[12] spare_xz[14] 0
11 *249:B spare_xz[14] 0
12 *14:7 *245:A0 5.31465e-05
*RES
1 *216:LO *21:7 15.0271 
2 *21:7 *245:A0 19.3507 
3 *21:7 spare_xz[14] 21.0557 
*END

*D_NET *22 0.00676107
*CONN
*P spare_xz[15] O
*I *244:A1 I *D sky130_fd_sc_hd__mux2_2
*I *217:LO O *D sky130_fd_sc_hd__conb_1
*CAP
1 spare_xz[15] 0.000613944
2 *244:A1 0.000194599
3 *217:LO 5.81894e-05
4 *22:13 0.00215195
5 *22:10 0.00185674
6 *22:7 0.000571521
7 spare_xz[15] spare_xz[22] 0
8 *244:A1 *244:S 0.000194976
9 *22:10 spare_xz[20] 0
10 *22:10 *244:S 7.26606e-05
11 *22:13 spare_xz[18] 0
12 *22:13 spare_xz[7] 0.000130331
13 *22:13 *23:7 0.000704491
14 spare_xz[0] *22:10 0.000154469
15 *240:A *22:10 5.71992e-05
16 *248:B *22:10 0
17 *14:7 *22:13 0
*RES
1 *217:LO *22:7 14.4725 
2 *22:7 *22:10 13.3913 
3 *22:10 *22:13 42.9364 
4 *22:13 spare_xz[15] 17.3185 
5 *22:7 *244:A1 18.5201 
*END

*D_NET *23 0.00526193
*CONN
*P spare_xz[16] O
*I *245:A1 I *D sky130_fd_sc_hd__mux2_2
*I *218:LO O *D sky130_fd_sc_hd__conb_1
*CAP
1 spare_xz[16] 0.00100688
2 *245:A1 0.000443703
3 *218:LO 0.000226484
4 *23:7 0.00167706
5 spare_xz[16] spare_xz[19] 6.85342e-05
6 spare_xz[16] spare_xz[23] 0.000104356
7 spare_xz[16] spare_xz[24] 0
8 spare_xz[16] spare_xz[7] 1.66626e-05
9 spare_xz[16] *238:SET_B 0.000247459
10 spare_xz[16] *239:SET_B 0
11 *245:A1 spare_xz[7] 0.000194131
12 *245:A1 *246:B 6.08467e-05
13 *245:A1 *40:5 0.000118166
14 spare_xfq[0] spare_xz[16] 0.000152331
15 *245:A0 *245:A1 0.000118166
16 *14:7 *245:A1 0.000122661
17 *22:13 *23:7 0.000704491
*RES
1 *218:LO *23:7 21.6824 
2 *23:7 spare_xz[16] 18.1039 
3 *23:7 *245:A1 26.0059 
*END

*D_NET *24 0.00178624
*CONN
*P spare_xz[17] O
*I *244:S I *D sky130_fd_sc_hd__mux2_2
*I *219:LO O *D sky130_fd_sc_hd__conb_1
*CAP
1 spare_xz[17] 0.000530869
2 *244:S 0.000170836
3 *219:LO 0
4 *24:5 0.000701704
5 spare_xz[17] spare_xz[9] 8.03443e-05
6 spare_xi[2] spare_xz[17] 3.4849e-05
7 *244:A1 *244:S 0.000194976
8 *22:10 *244:S 7.26606e-05
*RES
1 *219:LO *24:5 13.7491 
2 *24:5 *244:S 18.9032 
3 *24:5 spare_xz[17] 4.96178 
*END

*D_NET *25 0.00290952
*CONN
*P spare_xz[18] O
*I *245:S I *D sky130_fd_sc_hd__mux2_2
*I *220:LO O *D sky130_fd_sc_hd__conb_1
*CAP
1 spare_xz[18] 0.00110135
2 *245:S 0
3 *220:LO 0.000304519
4 *25:10 0.00140587
5 spare_xi[3] spare_xz[18] 0
6 spare_xib spare_xz[18] 0
7 spare_xz[12] spare_xz[18] 0
8 *245:A0 *25:10 0
9 *249:B spare_xz[18] 0
10 *14:7 spare_xz[18] 6.92597e-05
11 *21:7 *25:10 2.85139e-05
12 *22:13 spare_xz[18] 0
*RES
1 *220:LO *25:10 26.6265 
2 *25:10 spare_xz[18] 34.4532 
3 *25:10 *245:S 9.24915 
*END

*D_NET *26 0.00215586
*CONN
*P spare_xz[19] O
*I *238:D I *D sky130_fd_sc_hd__dfbbp_1
*I *221:LO O *D sky130_fd_sc_hd__conb_1
*CAP
1 spare_xz[19] 0.000688947
2 *238:D 0.000347059
3 *221:LO 0
4 *26:5 0.00103601
5 *238:D *238:CLK 0
6 spare_xno[0] spare_xz[19] 1.53148e-05
7 spare_xno[0] *238:D 0
8 spare_xz[16] spare_xz[19] 6.85342e-05
*RES
1 *221:LO *26:5 13.7491 
2 *26:5 spare_xz[19] 14.5415 
3 *26:5 *238:D 22.263 
*END

*D_NET *27 0.00217484
*CONN
*P spare_xz[1] O
*I *241:A I *D sky130_fd_sc_hd__inv_2
*I *222:LO O *D sky130_fd_sc_hd__conb_1
*CAP
1 spare_xz[1] 0.000202374
2 *241:A 0.000660238
3 *222:LO 0.000176204
4 *27:7 0.00103882
5 spare_xi[0] spare_xz[1] 0
6 spare_xi[0] *241:A 0
7 *6:7 *241:A 9.72058e-05
*RES
1 *222:LO *27:7 17.8002 
2 *27:7 spare_xz[1] 4.03039 
3 *27:7 *241:A 27.9372 
*END

*D_NET *28 0.00795948
*CONN
*P spare_xz[20] O
*I *239:D I *D sky130_fd_sc_hd__dfbbp_1
*I *223:LO O *D sky130_fd_sc_hd__conb_1
*CAP
1 spare_xz[20] 0.000874268
2 *239:D 0.00112387
3 *223:LO 8.24806e-05
4 *28:26 0.0016239
5 *28:8 0.00195598
6 spare_xz[20] *35:9 0
7 *239:D *239:RESET_B 4.89392e-05
8 *239:D *247:B 0.000113909
9 *28:8 *247:B 0.00021218
10 *28:8 *41:25 0
11 *28:26 *41:25 0
12 spare_xfq[1] *28:8 0.000214105
13 spare_xfqn[0] *28:26 0
14 spare_xz[0] *28:26 0.00053002
15 spare_xz[10] spare_xz[20] 0
16 *4:13 *239:D 9.43222e-06
17 *8:8 spare_xz[20] 0.000462058
18 *11:10 *28:8 7.45478e-05
19 *11:10 *28:26 0.00063379
20 *22:10 spare_xz[20] 0
*RES
1 *223:LO *28:8 17.5531 
2 *28:8 *239:D 32.2681 
3 *28:8 *28:26 28.1739 
4 *28:26 spare_xz[20] 24.3777 
*END

*D_NET *29 0.00445567
*CONN
*P spare_xz[21] O
*I *238:CLK I *D sky130_fd_sc_hd__dfbbp_1
*I *224:LO O *D sky130_fd_sc_hd__conb_1
*CAP
1 spare_xz[21] 0.00176019
2 *238:CLK 0.000205011
3 *224:LO 0
4 *29:4 0.0019652
5 spare_xz[21] spare_xz[25] 0.00032588
6 spare_xz[21] *31:7 6.08467e-05
7 *238:CLK *238:SET_B 0
8 spare_xfq[0] spare_xz[21] 4.61962e-05
9 spare_xna[1] spare_xz[21] 5.08239e-05
10 *238:D *238:CLK 0
11 *4:13 spare_xz[21] 4.15201e-05
*RES
1 *224:LO *29:4 9.24915 
2 *29:4 *238:CLK 23.1595 
3 *29:4 spare_xz[21] 24.7874 
*END

*D_NET *30 0.00152135
*CONN
*P spare_xz[22] O
*I *239:CLK I *D sky130_fd_sc_hd__dfbbp_1
*I *225:LO O *D sky130_fd_sc_hd__conb_1
*CAP
1 spare_xz[22] 0.000552761
2 *239:CLK 0.000207913
3 *225:LO 0
4 *30:4 0.000760674
5 spare_xno[0] spare_xz[22] 0
6 spare_xz[15] spare_xz[22] 0
*RES
1 *225:LO *30:4 9.24915 
2 *30:4 spare_xz[22] 16.3215 
3 *30:4 *239:CLK 14.2888 
*END

*D_NET *31 0.00165982
*CONN
*P spare_xz[23] O
*I *238:SET_B I *D sky130_fd_sc_hd__dfbbp_1
*I *226:LO O *D sky130_fd_sc_hd__conb_1
*CAP
1 spare_xz[23] 0.000475193
2 *238:SET_B 0.000122507
3 *226:LO 2.58786e-05
4 *31:7 0.000623578
5 spare_xz[23] spare_xz[24] 0
6 spare_xz[16] spare_xz[23] 0.000104356
7 spare_xz[16] *238:SET_B 0.000247459
8 spare_xz[21] *31:7 6.08467e-05
9 *238:CLK *238:SET_B 0
*RES
1 *226:LO *31:7 14.4725 
2 *31:7 spare_xz[23] 11.7248 
3 *31:7 *238:SET_B 8.82351 
*END

*D_NET *32 0.000791716
*CONN
*P spare_xz[24] O
*I *239:SET_B I *D sky130_fd_sc_hd__dfbbp_1
*I *227:LO O *D sky130_fd_sc_hd__conb_1
*CAP
1 spare_xz[24] 0.000266224
2 *239:SET_B 0.000129634
3 *227:LO 0
4 *32:5 0.000395858
5 *239:SET_B *239:RESET_B 0
6 spare_xz[16] spare_xz[24] 0
7 spare_xz[16] *239:SET_B 0
8 spare_xz[23] spare_xz[24] 0
*RES
1 *227:LO *32:5 13.7491 
2 *32:5 spare_xz[24] 7.79209 
3 *32:5 *239:SET_B 7.57775 
*END

*D_NET *33 0.00349298
*CONN
*P spare_xz[25] O
*I *238:RESET_B I *D sky130_fd_sc_hd__dfbbp_1
*I *228:LO O *D sky130_fd_sc_hd__conb_1
*CAP
1 spare_xz[25] 0.000974188
2 *238:RESET_B 0.000344518
3 *228:LO 0.000120598
4 *33:8 0.0014393
5 spare_xz[25] spare_xz[9] 0
6 spare_xfq[0] *238:RESET_B 1.43832e-05
7 spare_xfqn[0] *238:RESET_B 0.000132467
8 spare_xz[21] spare_xz[25] 0.00032588
9 *11:10 *238:RESET_B 3.27828e-05
10 *11:10 *33:8 0.000108858
*RES
1 *228:LO *33:8 16.5122 
2 *33:8 spare_xz[25] 6.32197 
3 *33:8 *238:RESET_B 22.4763 
*END

*D_NET *34 0.00082149
*CONN
*P spare_xz[26] O
*I *239:RESET_B I *D sky130_fd_sc_hd__dfbbp_1
*I *229:LO O *D sky130_fd_sc_hd__conb_1
*CAP
1 spare_xz[26] 0.000161141
2 *239:RESET_B 0.000189177
3 *229:LO 3.59575e-05
4 *34:7 0.000386275
5 *239:D *239:RESET_B 4.89392e-05
6 *239:SET_B *239:RESET_B 0
7 *4:13 *239:RESET_B 0
*RES
1 *229:LO *34:7 14.4725 
2 *34:7 spare_xz[26] 4.03039 
3 *34:7 *239:RESET_B 18.5201 
*END

*D_NET *35 0.00166436
*CONN
*P spare_xz[2] O
*I *242:A I *D sky130_fd_sc_hd__inv_2
*I *230:LO O *D sky130_fd_sc_hd__conb_1
*CAP
1 spare_xz[2] 0.000100952
2 *242:A 0
3 *230:LO 0.000246177
4 *35:18 0.00027452
5 *35:17 0.000397154
6 *35:9 0.000469763
7 spare_xz[11] spare_xz[2] 8.95978e-06
8 spare_xz[13] spare_xz[2] 3.59102e-05
9 spare_xz[13] *35:9 0
10 spare_xz[20] *35:9 0
11 *7:7 *35:17 0.00013092
*RES
1 *230:LO *35:9 23.8535 
2 *35:9 *242:A 9.24915 
3 *35:9 *35:17 15.5186 
4 *35:17 *35:18 289.725 
5 *35:18 spare_xz[2] 17.8657 
*END

*D_NET *36 0.00274261
*CONN
*P spare_xz[3] O
*I *243:A I *D sky130_fd_sc_hd__inv_2
*I *231:LO O *D sky130_fd_sc_hd__conb_1
*CAP
1 spare_xz[3] 0.000736551
2 *243:A 0.000286999
3 *231:LO 0.000153899
4 *36:11 0.00117745
5 spare_xmx[0] *36:11 0.00015324
6 spare_xz[11] spare_xz[3] 0
7 *244:A0 *36:11 0.00015324
8 *7:7 spare_xz[3] 0
9 *20:7 spare_xz[3] 1.61631e-05
10 *20:7 *243:A 6.50727e-05
*RES
1 *231:LO *36:11 23.323 
2 *36:11 *243:A 16.0732 
3 *36:11 spare_xz[3] 22.5559 
*END

*D_NET *37 0.00101959
*CONN
*P spare_xz[4] O
*I *210:A I *D sky130_fd_sc_hd__inv_8
*I *232:LO O *D sky130_fd_sc_hd__conb_1
*CAP
1 spare_xz[4] 0.000355719
2 *210:A 0.000101794
3 *232:LO 5.22831e-05
4 *37:5 0.000509796
5 spare_xz[4] spare_xz[5] 0
6 spare_xz[4] *38:8 0
7 spare_xz[14] spare_xz[4] 0
*RES
1 *232:LO *37:5 10.5271 
2 *37:5 *210:A 11.6364 
3 *37:5 spare_xz[4] 13.5134 
*END

*D_NET *38 0.00180297
*CONN
*P spare_xz[5] O
*I *246:A I *D sky130_fd_sc_hd__nand2_2
*I *233:LO O *D sky130_fd_sc_hd__conb_1
*CAP
1 spare_xz[5] 0.000383078
2 *246:A 0.000272832
3 *233:LO 0.000186181
4 *38:8 0.000842091
5 *38:8 *246:B 0
6 spare_xz[10] *38:8 0.000118792
7 spare_xz[4] spare_xz[5] 0
8 spare_xz[4] *38:8 0
*RES
1 *233:LO *38:8 18.5201 
2 *38:8 *246:A 20.0427 
3 *38:8 spare_xz[5] 10.0638 
*END

*D_NET *39 0.00160108
*CONN
*P spare_xz[6] O
*I *247:A I *D sky130_fd_sc_hd__nand2_2
*I *234:LO O *D sky130_fd_sc_hd__conb_1
*CAP
1 spare_xz[6] 0.00033343
2 *247:A 0.000190423
3 *234:LO 0.000116286
4 *39:6 0.000640138
5 *247:A *247:B 0.000310724
6 spare_xfq[1] *247:A 1.00766e-05
7 spare_xmx[1] spare_xz[6] 0
8 *11:10 *39:6 0
*RES
1 *234:LO *39:6 16.4116 
2 *39:6 spare_xz[6] 7.76766 
3 *39:6 *247:A 18.9335 
*END

*D_NET *40 0.00429755
*CONN
*P spare_xz[7] O
*I *246:B I *D sky130_fd_sc_hd__nand2_2
*I *235:LO O *D sky130_fd_sc_hd__conb_1
*CAP
1 spare_xz[7] 0.000798526
2 *246:B 0.000859253
3 *235:LO 1.79978e-05
4 *40:5 0.00167578
5 *246:B *41:25 0
6 spare_xfq[0] spare_xz[7] 0
7 spare_xz[0] spare_xz[7] 0.000128216
8 spare_xz[0] *246:B 4.20184e-06
9 spare_xz[16] spare_xz[7] 1.66626e-05
10 *245:A1 spare_xz[7] 0.000194131
11 *245:A1 *246:B 6.08467e-05
12 *245:A1 *40:5 0.000118166
13 *4:13 *246:B 0
14 *14:7 *246:B 0.000244519
15 *14:7 *40:5 4.89251e-05
16 *22:13 spare_xz[7] 0.000130331
17 *38:8 *246:B 0
*RES
1 *235:LO *40:5 10.5271 
2 *40:5 spare_xz[7] 13.8071 
3 *40:5 *246:B 40.8844 
*END

*D_NET *41 0.00933692
*CONN
*P spare_xz[8] O
*I *247:B I *D sky130_fd_sc_hd__nand2_2
*I *236:LO O *D sky130_fd_sc_hd__conb_1
*CAP
1 spare_xz[8] 0.000801575
2 *247:B 0.000263815
3 *236:LO 0.000425929
4 *41:25 0.00189346
5 *41:8 0.00178163
6 spare_xfq[1] *247:B 0.000362285
7 spare_xfqn[0] *41:25 0.00145648
8 spare_xib spare_xz[8] 0
9 spare_xna[0] *41:25 4.75721e-06
10 spare_xz[10] *41:25 0
11 *239:D *247:B 0.000113909
12 *246:B *41:25 0
13 *247:A *247:B 0.000310724
14 *4:13 *41:8 5.71992e-05
15 *4:13 *41:25 0.00165298
16 *28:8 *247:B 0.00021218
17 *28:8 *41:25 0
18 *28:26 *41:25 0
*RES
1 *236:LO *41:8 21.0173 
2 *41:8 *247:B 25.5646 
3 *41:8 *41:25 48.8633 
4 *41:25 spare_xz[8] 2.89332 
*END

*D_NET *42 0.00200529
*CONN
*P spare_xz[9] O
*I *248:A I *D sky130_fd_sc_hd__nor2_2
*I *237:LO O *D sky130_fd_sc_hd__conb_1
*CAP
1 spare_xz[9] 0.000387918
2 *248:A 0
3 *237:LO 0.000201766
4 *42:7 0.000589684
5 spare_xz[0] spare_xz[9] 0
6 spare_xz[0] *42:7 0.000157767
7 spare_xz[17] spare_xz[9] 8.03443e-05
8 spare_xz[25] spare_xz[9] 0
9 *248:B *42:7 3.30997e-05
10 *14:7 *42:7 0.000554715
*RES
1 *237:LO *42:7 17.7611 
2 *42:7 spare_xz[9] 9.30496 
3 *42:7 *248:A 9.24915 
*END
