*SPEF "ieee 1481-1999"
*DESIGN "spare_logic_block"
*DATE "11:11:11 Fri 11 11, 1111"
*VENDOR "OpenRCX"
*PROGRAM "Parallel Extraction"
*VERSION "1.0"
*DESIGN_FLOW "NAME_SCOPE LOCAL" "PIN_CAP NONE"
*DIVIDER /
*DELIMITER :
*BUS_DELIMITER []
*T_UNIT 1 NS
*C_UNIT 1 PF
*R_UNIT 1 OHM
*L_UNIT 1 HENRY

*NAME_MAP
*1 spare_xfq[0]
*2 spare_xfq[1]
*3 spare_xfqn[0]
*4 spare_xfqn[1]
*5 spare_xi[0]
*6 spare_xi[1]
*7 spare_xi[2]
*8 spare_xi[3]
*9 spare_xib
*10 spare_xmx[0]
*11 spare_xmx[1]
*12 spare_xna[0]
*13 spare_xna[1]
*14 spare_xno[0]
*15 spare_xno[1]
*16 spare_xz[0]
*17 spare_xz[10]
*18 spare_xz[11]
*19 spare_xz[12]
*20 spare_xz[13]
*21 spare_xz[14]
*22 spare_xz[15]
*23 spare_xz[16]
*24 spare_xz[17]
*25 spare_xz[18]
*26 spare_xz[19]
*27 spare_xz[1]
*28 spare_xz[20]
*29 spare_xz[21]
*30 spare_xz[22]
*31 spare_xz[23]
*32 spare_xz[24]
*33 spare_xz[25]
*34 spare_xz[26]
*35 spare_xz[2]
*36 spare_xz[3]
*37 spare_xz[4]
*38 spare_xz[5]
*39 spare_xz[6]
*40 spare_xz[7]
*41 spare_xz[8]
*42 spare_xz[9]
*45 spare_logic1\[0\]
*46 spare_logic1\[10\]
*47 spare_logic1\[11\]
*48 spare_logic1\[12\]
*49 spare_logic1\[13\]
*50 spare_logic1\[14\]
*51 spare_logic1\[15\]
*52 spare_logic1\[16\]
*53 spare_logic1\[17\]
*54 spare_logic1\[18\]
*55 spare_logic1\[19\]
*56 spare_logic1\[1\]
*57 spare_logic1\[20\]
*58 spare_logic1\[21\]
*59 spare_logic1\[22\]
*60 spare_logic1\[23\]
*61 spare_logic1\[24\]
*62 spare_logic1\[25\]
*63 spare_logic1\[26\]
*64 spare_logic1\[2\]
*65 spare_logic1\[3\]
*66 spare_logic1\[4\]
*67 spare_logic1\[5\]
*68 spare_logic1\[6\]
*69 spare_logic1\[7\]
*70 spare_logic1\[8\]
*71 spare_logic1\[9\]
*72 FILLER_0_20
*73 FILLER_0_24
*74 FILLER_0_29
*75 FILLER_0_3
*76 FILLER_0_34
*77 FILLER_0_42
*78 FILLER_0_48
*79 FILLER_0_57
*80 FILLER_0_68
*81 FILLER_0_8
*82 FILLER_10_14
*83 FILLER_10_25
*84 FILLER_10_29
*85 FILLER_10_3
*86 FILLER_10_41
*87 FILLER_10_49
*88 FILLER_10_53
*89 FILLER_10_60
*90 FILLER_10_67
*91 FILLER_11_14
*92 FILLER_11_26
*93 FILLER_11_29
*94 FILLER_11_3
*95 FILLER_11_41
*96 FILLER_11_53
*97 FILLER_11_57
*98 FILLER_11_68
*99 FILLER_1_3
*100 FILLER_1_38
*101 FILLER_1_46
*102 FILLER_1_53
*103 FILLER_1_57
*104 FILLER_1_62
*105 FILLER_1_8
*106 FILLER_2_12
*107 FILLER_2_19
*108 FILLER_2_27
*109 FILLER_2_29
*110 FILLER_2_3
*111 FILLER_2_41
*112 FILLER_2_47
*113 FILLER_2_54
*114 FILLER_2_62
*115 FILLER_2_68
*116 FILLER_3_3
*117 FILLER_3_35
*118 FILLER_3_47
*119 FILLER_3_55
*120 FILLER_3_57
*121 FILLER_3_68
*122 FILLER_4_20
*123 FILLER_4_29
*124 FILLER_4_3
*125 FILLER_4_41
*126 FILLER_4_53
*127 FILLER_4_57
*128 FILLER_4_61
*129 FILLER_4_68
*130 FILLER_4_8
*131 FILLER_5_14
*132 FILLER_5_21
*133 FILLER_5_3
*134 FILLER_5_33
*135 FILLER_5_45
*136 FILLER_5_53
*137 FILLER_5_57
*138 FILLER_5_68
*139 FILLER_6_10
*140 FILLER_6_17
*141 FILLER_6_25
*142 FILLER_6_29
*143 FILLER_6_3
*144 FILLER_6_41
*145 FILLER_6_53
*146 FILLER_6_57
*147 FILLER_6_61
*148 FILLER_6_68
*149 FILLER_7_15
*150 FILLER_7_27
*151 FILLER_7_3
*152 FILLER_7_39
*153 FILLER_7_51
*154 FILLER_7_55
*155 FILLER_7_57
*156 FILLER_7_62
*157 FILLER_8_20
*158 FILLER_8_29
*159 FILLER_8_3
*160 FILLER_8_41
*161 FILLER_8_53
*162 FILLER_8_68
*163 FILLER_8_8
*164 FILLER_9_10
*165 FILLER_9_17
*166 FILLER_9_24
*167 FILLER_9_3
*168 FILLER_9_36
*169 FILLER_9_48
*170 FILLER_9_57
*171 FILLER_9_68
*172 PHY_0
*173 PHY_1
*174 PHY_10
*175 PHY_11
*176 PHY_12
*177 PHY_13
*178 PHY_14
*179 PHY_15
*180 PHY_16
*181 PHY_17
*182 PHY_18
*183 PHY_19
*184 PHY_2
*185 PHY_20
*186 PHY_21
*187 PHY_22
*188 PHY_23
*189 PHY_3
*190 PHY_4
*191 PHY_5
*192 PHY_6
*193 PHY_7
*194 PHY_8
*195 PHY_9
*196 TAP_24
*197 TAP_25
*198 TAP_26
*199 TAP_27
*200 TAP_28
*201 TAP_29
*202 TAP_30
*203 TAP_31
*204 TAP_32
*205 TAP_33
*206 TAP_34
*207 TAP_35
*208 TAP_36
*209 TAP_37
*210 spare_logic_biginv
*211 spare_logic_const\[0\]
*212 spare_logic_const\[10\]
*213 spare_logic_const\[11\]
*214 spare_logic_const\[12\]
*215 spare_logic_const\[13\]
*216 spare_logic_const\[14\]
*217 spare_logic_const\[15\]
*218 spare_logic_const\[16\]
*219 spare_logic_const\[17\]
*220 spare_logic_const\[18\]
*221 spare_logic_const\[19\]
*222 spare_logic_const\[1\]
*223 spare_logic_const\[20\]
*224 spare_logic_const\[21\]
*225 spare_logic_const\[22\]
*226 spare_logic_const\[23\]
*227 spare_logic_const\[24\]
*228 spare_logic_const\[25\]
*229 spare_logic_const\[26\]
*230 spare_logic_const\[2\]
*231 spare_logic_const\[3\]
*232 spare_logic_const\[4\]
*233 spare_logic_const\[5\]
*234 spare_logic_const\[6\]
*235 spare_logic_const\[7\]
*236 spare_logic_const\[8\]
*237 spare_logic_const\[9\]
*238 spare_logic_flop\[0\]
*239 spare_logic_flop\[1\]
*240 spare_logic_inv\[0\]
*241 spare_logic_inv\[1\]
*242 spare_logic_inv\[2\]
*243 spare_logic_inv\[3\]
*244 spare_logic_mux\[0\]
*245 spare_logic_mux\[1\]
*246 spare_logic_nand\[0\]
*247 spare_logic_nand\[1\]
*248 spare_logic_nor\[0\]
*249 spare_logic_nor\[1\]

*PORTS
spare_xfq[0] O
spare_xfq[1] O
spare_xfqn[0] O
spare_xfqn[1] O
spare_xi[0] O
spare_xi[1] O
spare_xi[2] O
spare_xi[3] O
spare_xib O
spare_xmx[0] O
spare_xmx[1] O
spare_xna[0] O
spare_xna[1] O
spare_xno[0] O
spare_xno[1] O
spare_xz[0] O
spare_xz[10] O
spare_xz[11] O
spare_xz[12] O
spare_xz[13] O
spare_xz[14] O
spare_xz[15] O
spare_xz[16] O
spare_xz[17] O
spare_xz[18] O
spare_xz[19] O
spare_xz[1] O
spare_xz[20] O
spare_xz[21] O
spare_xz[22] O
spare_xz[23] O
spare_xz[24] O
spare_xz[25] O
spare_xz[26] O
spare_xz[2] O
spare_xz[3] O
spare_xz[4] O
spare_xz[5] O
spare_xz[6] O
spare_xz[7] O
spare_xz[8] O
spare_xz[9] O

*D_NET *1 0.00311906
*CONN
*P spare_xfq[0] O
*I *238:Q O *D sky130_fd_sc_hd__dfbbp_1
*CAP
1 spare_xfq[0] 0.00143801
2 *238:Q 0.00143801
3 spare_xfq[0] spare_xfqn[1] 0.000117662
4 spare_xfq[0] spare_xmx[1] 0
5 spare_xfq[0] spare_xz[16] 6.02211e-05
6 spare_xfq[0] spare_xz[21] 4.58764e-05
7 spare_xfq[0] spare_xz[7] 0
8 spare_xfq[0] *238:RESET_B 1.92905e-05
*RES
1 *238:Q spare_xfq[0] 25.1276 
*END

*D_NET *2 0.00213979
*CONN
*P spare_xfq[1] O
*I *239:Q O *D sky130_fd_sc_hd__dfbbp_1
*CAP
1 spare_xfq[1] 0.00100634
2 *239:Q 0.00100634
3 spare_xfq[1] spare_xna[1] 0
4 spare_xfq[1] spare_xz[6] 0
5 spare_xfq[1] *240:A 0
6 spare_xfq[1] *247:B 1.72894e-05
7 spare_xfq[1] *39:5 0.00010982
*RES
1 *239:Q spare_xfq[1] 27.0143 
*END

*D_NET *3 0.00331587
*CONN
*P spare_xfqn[0] O
*I *238:Q_N O *D sky130_fd_sc_hd__dfbbp_1
*CAP
1 spare_xfqn[0] 0.00110952
2 *238:Q_N 0.00110952
3 spare_xfqn[0] spare_xfqn[1] 0.000678408
4 spare_xfqn[0] spare_xmx[1] 0
5 spare_xfqn[0] spare_xna[0] 4.65158e-06
6 spare_xfqn[0] spare_xz[10] 0.000264291
7 spare_xfqn[0] *238:RESET_B 0.000149489
*RES
1 *238:Q_N spare_xfqn[0] 39.0679 
*END

*D_NET *4 0.00548086
*CONN
*P spare_xfqn[1] O
*I *239:Q_N O *D sky130_fd_sc_hd__dfbbp_1
*CAP
1 spare_xfqn[1] 0.00220636
2 *239:Q_N 0.00220636
3 spare_xfqn[1] spare_xib 6.38666e-05
4 spare_xfqn[1] spare_xmx[1] 0
5 spare_xfqn[1] spare_xna[0] 7.4607e-05
6 spare_xfqn[1] spare_xno[1] 8.51322e-05
7 spare_xfqn[1] spare_xz[0] 4.64488e-06
8 spare_xfqn[1] spare_xz[21] 4.38243e-05
9 spare_xfq[0] spare_xfqn[1] 0.000117662
10 spare_xfqn[0] spare_xfqn[1] 0.000678408
*RES
1 *239:Q_N spare_xfqn[1] 41.8081 
*END

*D_NET *5 0.00103043
*CONN
*P spare_xi[0] O
*I *240:Y O *D sky130_fd_sc_hd__inv_2
*CAP
1 spare_xi[0] 0.000515214
2 *240:Y 0.000515214
3 spare_xi[0] spare_xi[1] 0
*RES
1 *240:Y spare_xi[0] 21.3 
*END

*D_NET *6 0.00245382
*CONN
*P spare_xi[1] O
*I *241:Y O *D sky130_fd_sc_hd__inv_2
*CAP
1 spare_xi[1] 0.000932095
2 *241:Y 0.000932095
3 spare_xi[1] spare_xna[1] 0
4 spare_xi[1] spare_xz[1] 0.000589634
5 spare_xi[1] *241:A 0
6 spare_xi[0] spare_xi[1] 0
*RES
1 *241:Y spare_xi[1] 33.0495 
*END

*D_NET *7 0.0010713
*CONN
*P spare_xi[2] O
*I *242:Y O *D sky130_fd_sc_hd__inv_2
*CAP
1 spare_xi[2] 0.000437974
2 *242:Y 0.000437974
3 spare_xi[2] spare_xna[0] 0
4 spare_xi[2] spare_xz[11] 0.000112735
5 spare_xi[2] spare_xz[17] 8.26187e-05
6 spare_xi[2] *244:A0 0
7 spare_xi[2] *244:S 0
*RES
1 *242:Y spare_xi[2] 22.3193 
*END

*D_NET *8 0.00553045
*CONN
*P spare_xi[3] O
*I *243:Y O *D sky130_fd_sc_hd__inv_2
*CAP
1 spare_xi[3] 0.00254025
2 *243:Y 0.00254025
3 spare_xi[3] spare_xna[0] 0.000245418
4 spare_xi[3] spare_xz[18] 0
5 spare_xi[3] *246:A 1.83136e-05
6 spare_xi[3] *246:B 3.67257e-05
7 spare_xi[3] *35:7 0.000149489
*RES
1 *243:Y spare_xi[3] 48.3536 
*END

*D_NET *9 0.00117229
*CONN
*P spare_xib O
*I *210:Y O *D sky130_fd_sc_hd__inv_8
*CAP
1 spare_xib 0.000424782
2 *210:Y 0.000424782
3 spare_xib spare_xz[14] 0
4 spare_xib spare_xz[18] 0.000258862
5 spare_xib spare_xz[8] 0
6 spare_xfqn[1] spare_xib 6.38666e-05
*RES
1 *210:Y spare_xib 21.3027 
*END

*D_NET *10 0.0015306
*CONN
*P spare_xmx[0] O
*I *244:X O *D sky130_fd_sc_hd__mux2_2
*CAP
1 spare_xmx[0] 0.000594929
2 *244:X 0.000594929
3 spare_xmx[0] spare_xz[11] 0
4 spare_xmx[0] spare_xz[2] 5.89074e-05
5 spare_xmx[0] *244:A0 0.000281835
*RES
1 *244:X spare_xmx[0] 25.9429 
*END

*D_NET *11 0.00448891
*CONN
*P spare_xmx[1] O
*I *245:X O *D sky130_fd_sc_hd__mux2_2
*CAP
1 spare_xmx[1] 0.00144783
2 *245:X 0.00144783
3 spare_xmx[1] spare_xz[0] 0.000128011
4 spare_xmx[1] spare_xz[6] 0
5 spare_xmx[1] *238:RESET_B 3.4896e-05
6 spare_xmx[1] *247:B 0
7 spare_xmx[1] *14:7 0.00131528
8 spare_xmx[1] *33:8 0.000115063
9 spare_xfq[0] spare_xmx[1] 0
10 spare_xfqn[0] spare_xmx[1] 0
11 spare_xfqn[1] spare_xmx[1] 0
*RES
1 *245:X spare_xmx[1] 41.8 
*END

*D_NET *12 0.00386509
*CONN
*P spare_xna[0] O
*I *246:Y O *D sky130_fd_sc_hd__nand2_2
*CAP
1 spare_xna[0] 0.0017289
2 *246:Y 0.0017289
3 spare_xna[0] spare_xz[13] 8.26187e-05
4 spare_xna[0] spare_xz[2] 0
5 spare_xfqn[0] spare_xna[0] 4.65158e-06
6 spare_xfqn[1] spare_xna[0] 7.4607e-05
7 spare_xi[2] spare_xna[0] 0
8 spare_xi[3] spare_xna[0] 0.000245418
*RES
1 *246:Y spare_xna[0] 24.9494 
*END

*D_NET *13 0.00194691
*CONN
*P spare_xna[1] O
*I *247:Y O *D sky130_fd_sc_hd__nand2_2
*CAP
1 spare_xna[1] 0.0007921
2 *247:Y 0.0007921
3 spare_xna[1] spare_xz[20] 0.000125724
4 spare_xna[1] spare_xz[21] 7.46391e-05
5 spare_xna[1] spare_xz[6] 0.000162351
6 spare_xfq[1] spare_xna[1] 0
7 spare_xi[1] spare_xna[1] 0
*RES
1 *247:Y spare_xna[1] 21.2415 
*END

*D_NET *14 0.00606459
*CONN
*P spare_xno[0] O
*I *248:Y O *D sky130_fd_sc_hd__nor2_2
*CAP
1 spare_xno[0] 0.00085646
2 *248:Y 0.0011337
3 *14:7 0.00199016
4 spare_xno[0] spare_xz[16] 0
5 spare_xno[0] spare_xz[19] 2.96089e-05
6 spare_xno[0] spare_xz[22] 0
7 spare_xno[0] *238:D 0
8 spare_xno[0] *239:CLK 0
9 spare_xno[0] *245:A1 0
10 *14:7 spare_xz[0] 0.000616942
11 *14:7 *245:A1 2.44318e-05
12 *14:7 *245:S 9.80173e-05
13 *14:7 *22:11 0
14 spare_xmx[1] *14:7 0.00131528
*RES
1 *248:Y *14:7 40.2107 
2 *14:7 spare_xno[0] 17.7321 
*END

*D_NET *15 0.000738253
*CONN
*P spare_xno[1] O
*I *249:Y O *D sky130_fd_sc_hd__nor2_2
*CAP
1 spare_xno[1] 0.000315989
2 *249:Y 0.000315989
3 spare_xno[1] spare_xz[12] 0
4 spare_xno[1] spare_xz[18] 2.11419e-05
5 spare_xfqn[1] spare_xno[1] 8.51322e-05
*RES
1 *249:Y spare_xno[1] 18.267 
*END

*D_NET *16 0.00631056
*CONN
*P spare_xz[0] O
*I *240:A I *D sky130_fd_sc_hd__inv_2
*I *211:LO O *D sky130_fd_sc_hd__conb_1
*CAP
1 spare_xz[0] 0.00166309
2 *240:A 0.000850657
3 *211:LO 0
4 *16:4 0.00251375
5 spare_xz[0] spare_xz[12] 4.20227e-05
6 spare_xz[0] spare_xz[20] 0
7 spare_xz[0] spare_xz[7] 0.000189616
8 spare_xz[0] *22:11 0.000173804
9 *240:A spare_xz[1] 0
10 *240:A *241:A 7.04134e-05
11 *240:A *22:11 5.52238e-05
12 *240:A *42:6 2.38651e-06
13 spare_xfq[1] *240:A 0
14 spare_xfqn[1] spare_xz[0] 4.64488e-06
15 spare_xmx[1] spare_xz[0] 0.000128011
16 *14:7 spare_xz[0] 0.000616942
*RES
1 *211:LO *16:4 9.3 
2 *16:4 spare_xz[0] 32.9664 
3 *16:4 *240:A 32.175 
*END

*D_NET *17 0.00298197
*CONN
*P spare_xz[10] O
*I *249:A I *D sky130_fd_sc_hd__nor2_2
*I *212:LO O *D sky130_fd_sc_hd__conb_1
*CAP
1 spare_xz[10] 0.00115052
2 *249:A 0.000151333
3 *212:LO 0
4 *17:4 0.00130186
5 spare_xz[10] spare_xz[20] 0
6 spare_xz[10] *38:8 0.000100261
7 spare_xz[10] *41:24 0
8 *249:A *249:B 1.3701e-05
9 spare_xfqn[0] spare_xz[10] 0.000264291
*RES
1 *212:LO *17:4 9.3 
2 *17:4 *249:A 11.9071 
3 *17:4 spare_xz[10] 27.6786 
*END

*D_NET *18 0.00290784
*CONN
*P spare_xz[11] O
*I *248:B I *D sky130_fd_sc_hd__nor2_2
*I *213:LO O *D sky130_fd_sc_hd__conb_1
*CAP
1 spare_xz[11] 0.00105838
2 *248:B 0.000151267
3 *213:LO 8.97247e-05
4 *18:5 0.00129938
5 spare_xz[11] spare_xz[13] 3.46442e-05
6 spare_xz[11] spare_xz[3] 0
7 spare_xz[11] *244:S 0
8 spare_xz[11] *24:7 5.49544e-05
9 *248:B spare_xz[9] 4.2313e-06
10 *248:B *22:11 0
11 *248:B *42:6 3.4846e-06
12 *18:5 *24:7 9.90367e-05
13 spare_xi[2] spare_xz[11] 0.000112735
14 spare_xmx[0] spare_xz[11] 0
*RES
1 *213:LO *18:5 11.0679 
2 *18:5 *248:B 21.1571 
3 *18:5 spare_xz[11] 23.6071 
*END

*D_NET *19 0.00173507
*CONN
*P spare_xz[12] O
*I *249:B I *D sky130_fd_sc_hd__nor2_2
*I *214:LO O *D sky130_fd_sc_hd__conb_1
*CAP
1 spare_xz[12] 0.000499487
2 *249:B 0.000160457
3 *214:LO 0
4 *19:5 0.000659944
5 spare_xz[12] spare_xz[14] 0
6 spare_xz[12] spare_xz[18] 0.000214944
7 *249:B spare_xz[14] 0
8 *249:B spare_xz[18] 0.000144512
9 spare_xno[1] spare_xz[12] 0
10 spare_xz[0] spare_xz[12] 4.20227e-05
11 *249:A *249:B 1.3701e-05
*RES
1 *214:LO *19:5 13.8 
2 *19:5 spare_xz[12] 7.20262 
3 *19:5 *249:B 17.4429 
*END

*D_NET *20 0.00212972
*CONN
*P spare_xz[13] O
*I *244:A0 I *D sky130_fd_sc_hd__mux2_2
*I *215:LO O *D sky130_fd_sc_hd__conb_1
*CAP
1 spare_xz[13] 0.000297285
2 *244:A0 0.000329191
3 *215:LO 0
4 *20:4 0.000626475
5 spare_xz[13] spare_xz[2] 8.00458e-05
6 *244:A0 spare_xz[20] 0
7 *244:A0 spare_xz[2] 0.000199997
8 *244:A0 *242:A 0.00019763
9 spare_xi[2] *244:A0 0
10 spare_xmx[0] *244:A0 0.000281835
11 spare_xna[0] spare_xz[13] 8.26187e-05
12 spare_xz[11] spare_xz[13] 3.46442e-05
*RES
1 *215:LO *20:4 9.3 
2 *20:4 *244:A0 27.0679 
3 *20:4 spare_xz[13] 11.6086 
*END

*D_NET *21 0.0021569
*CONN
*P spare_xz[14] O
*I *245:A0 I *D sky130_fd_sc_hd__mux2_2
*I *216:LO O *D sky130_fd_sc_hd__conb_1
*CAP
1 spare_xz[14] 0.000768883
2 *245:A0 0.000167586
3 *216:LO 0
4 *21:5 0.00093647
5 spare_xz[14] spare_xz[18] 0
6 spare_xz[14] spare_xz[4] 0.000166858
7 spare_xz[14] *210:A 0.0001171
8 spare_xz[14] *246:B 0
9 *245:A0 spare_xz[18] 0
10 *245:A0 *245:S 0
11 *245:A0 *246:B 0
12 spare_xib spare_xz[14] 0
13 spare_xz[12] spare_xz[14] 0
14 *249:B spare_xz[14] 0
*RES
1 *216:LO *21:5 13.8 
2 *21:5 *245:A0 16.6571 
3 *21:5 spare_xz[14] 15.3929 
*END

*D_NET *22 0.00654011
*CONN
*P spare_xz[15] O
*I *244:A1 I *D sky130_fd_sc_hd__mux2_2
*I *217:LO O *D sky130_fd_sc_hd__conb_1
*CAP
1 spare_xz[15] 0.000638877
2 *244:A1 0.000178049
3 *217:LO 0
4 *22:11 0.0028415
5 *22:5 0.00238067
6 spare_xz[15] spare_xz[22] 0
7 spare_xz[15] *239:CLK 0
8 *244:A1 spare_xz[20] 0
9 *244:A1 *244:S 0.000132995
10 *22:11 spare_xz[20] 0
11 *22:11 spare_xz[7] 0.000111084
12 *22:11 *244:S 2.79092e-05
13 *22:11 *42:6 0
14 spare_xz[0] *22:11 0.000173804
15 *240:A *22:11 5.52238e-05
16 *248:B *22:11 0
17 *14:7 *22:11 0
*RES
1 *217:LO *22:5 13.8 
2 *22:5 *22:11 44.4821 
3 *22:11 spare_xz[15] 12.9643 
4 *22:5 *244:A1 17.3 
*END

*D_NET *23 0.00269917
*CONN
*P spare_xz[16] O
*I *245:A1 I *D sky130_fd_sc_hd__mux2_2
*I *218:LO O *D sky130_fd_sc_hd__conb_1
*CAP
1 spare_xz[16] 0.000699958
2 *245:A1 0.000227655
3 *218:LO 0
4 *23:5 0.000927613
5 spare_xz[16] spare_xz[19] 0.000208572
6 spare_xz[16] *238:CLK 0
7 spare_xz[16] *238:D 0.0004644
8 *245:A1 *245:S 8.63187e-05
9 spare_xfq[0] spare_xz[16] 6.02211e-05
10 spare_xno[0] spare_xz[16] 0
11 spare_xno[0] *245:A1 0
12 *14:7 *245:A1 2.44318e-05
*RES
1 *218:LO *23:5 13.8 
2 *23:5 spare_xz[16] 13.5741 
3 *23:5 *245:A1 17.9071 
*END

*D_NET *24 0.00203015
*CONN
*P spare_xz[17] O
*I *244:S I *D sky130_fd_sc_hd__mux2_2
*I *219:LO O *D sky130_fd_sc_hd__conb_1
*CAP
1 spare_xz[17] 0.000447176
2 *244:S 0.00022614
3 *219:LO 9.67222e-05
4 *24:7 0.000770038
5 spare_xz[17] spare_xz[9] 9.25628e-05
6 *244:S spare_xz[20] 0
7 spare_xi[2] spare_xz[17] 8.26187e-05
8 spare_xi[2] *244:S 0
9 spare_xz[11] *244:S 0
10 spare_xz[11] *24:7 5.49544e-05
11 *244:A1 *244:S 0.000132995
12 *18:5 *24:7 9.90367e-05
13 *22:11 *244:S 2.79092e-05
*RES
1 *219:LO *24:7 15.1571 
2 *24:7 *244:S 18.5143 
3 *24:7 spare_xz[17] 4.6226 
*END

*D_NET *25 0.00373417
*CONN
*P spare_xz[18] O
*I *245:S I *D sky130_fd_sc_hd__mux2_2
*I *220:LO O *D sky130_fd_sc_hd__conb_1
*CAP
1 spare_xz[18] 0.000974887
2 *245:S 0.000192611
3 *220:LO 0.000287692
4 *25:7 0.00145519
5 spare_xz[18] spare_xz[4] 0
6 spare_xi[3] spare_xz[18] 0
7 spare_xib spare_xz[18] 0.000258862
8 spare_xno[1] spare_xz[18] 2.11419e-05
9 spare_xz[12] spare_xz[18] 0.000214944
10 spare_xz[14] spare_xz[18] 0
11 *245:A0 spare_xz[18] 0
12 *245:A0 *245:S 0
13 *245:A1 *245:S 8.63187e-05
14 *249:B spare_xz[18] 0.000144512
15 *14:7 *245:S 9.80173e-05
*RES
1 *220:LO *25:7 18.0321 
2 *25:7 *245:S 17.6036 
3 *25:7 spare_xz[18] 21.1071 
*END

*D_NET *26 0.00259919
*CONN
*P spare_xz[19] O
*I *238:D I *D sky130_fd_sc_hd__dfbbp_1
*I *221:LO O *D sky130_fd_sc_hd__conb_1
*CAP
1 spare_xz[19] 0.000435509
2 *238:D 0.000452734
3 *221:LO 4.70928e-05
4 *26:7 0.000935335
5 *26:7 *239:CLK 2.59355e-05
6 spare_xno[0] spare_xz[19] 2.96089e-05
7 spare_xno[0] *238:D 0
8 spare_xz[16] spare_xz[19] 0.000208572
9 spare_xz[16] *238:D 0.0004644
*RES
1 *221:LO *26:7 14.3357 
2 *26:7 spare_xz[19] 8.64492 
3 *26:7 *238:D 23.5143 
*END

*D_NET *27 0.00182133
*CONN
*P spare_xz[1] O
*I *241:A I *D sky130_fd_sc_hd__inv_2
*I *222:LO O *D sky130_fd_sc_hd__conb_1
*CAP
1 spare_xz[1] 0.000443036
2 *241:A 0.000137605
3 *222:LO 0
4 *27:4 0.000580641
5 spare_xi[1] spare_xz[1] 0.000589634
6 spare_xi[1] *241:A 0
7 *240:A spare_xz[1] 0
8 *240:A *241:A 7.04134e-05
*RES
1 *222:LO *27:4 9.3 
2 *27:4 *241:A 21.1571 
3 *27:4 spare_xz[1] 14.1786 
*END

*D_NET *28 0.00684954
*CONN
*P spare_xz[20] O
*I *239:D I *D sky130_fd_sc_hd__dfbbp_1
*I *223:LO O *D sky130_fd_sc_hd__conb_1
*CAP
1 spare_xz[20] 0.00166367
2 *239:D 0.00109335
3 *223:LO 0
4 *28:4 0.00275702
5 spare_xz[20] spare_xz[2] 0
6 spare_xz[20] spare_xz[6] 1.17968e-05
7 spare_xz[20] *242:A 0
8 spare_xz[20] *247:B 7.7358e-05
9 spare_xz[20] *41:24 0.00092864
10 *239:D spare_xz[23] 6.74911e-05
11 *239:D *239:SET_B 4.35048e-05
12 *239:D *32:7 5.20751e-05
13 *239:D *34:7 2.89114e-05
14 spare_xna[1] spare_xz[20] 0.000125724
15 spare_xz[0] spare_xz[20] 0
16 spare_xz[10] spare_xz[20] 0
17 *244:A0 spare_xz[20] 0
18 *244:A1 spare_xz[20] 0
19 *244:S spare_xz[20] 0
20 *22:11 spare_xz[20] 0
*RES
1 *223:LO *28:4 9.3 
2 *28:4 *239:D 32.1036 
3 *28:4 spare_xz[20] 38.9464 
*END

*D_NET *29 0.00457219
*CONN
*P spare_xz[21] O
*I *238:CLK I *D sky130_fd_sc_hd__dfbbp_1
*I *224:LO O *D sky130_fd_sc_hd__conb_1
*CAP
1 spare_xz[21] 0.00188168
2 *238:CLK 0.000125224
3 *224:LO 0
4 *29:4 0.00200691
5 spare_xz[21] spare_xz[25] 0.000394041
6 *238:CLK *238:SET_B 0
7 spare_xfq[0] spare_xz[21] 4.58764e-05
8 spare_xfqn[1] spare_xz[21] 4.38243e-05
9 spare_xna[1] spare_xz[21] 7.46391e-05
10 spare_xz[16] *238:CLK 0
*RES
1 *224:LO *29:4 9.3 
2 *29:4 *238:CLK 20.55 
3 *29:4 spare_xz[21] 22.4207 
*END

*D_NET *30 0.00185893
*CONN
*P spare_xz[22] O
*I *239:CLK I *D sky130_fd_sc_hd__dfbbp_1
*I *225:LO O *D sky130_fd_sc_hd__conb_1
*CAP
1 spare_xz[22] 0.000149772
2 *239:CLK 0.000517037
3 *225:LO 0.000249688
4 *30:7 0.000916497
5 spare_xno[0] spare_xz[22] 0
6 spare_xno[0] *239:CLK 0
7 spare_xz[15] spare_xz[22] 0
8 spare_xz[15] *239:CLK 0
9 *26:7 *239:CLK 2.59355e-05
*RES
1 *225:LO *30:7 18.0321 
2 *30:7 spare_xz[22] 2.94643 
3 *30:7 *239:CLK 23.1571 
*END

*D_NET *31 0.00128783
*CONN
*P spare_xz[23] O
*I *238:SET_B I *D sky130_fd_sc_hd__dfbbp_1
*I *226:LO O *D sky130_fd_sc_hd__conb_1
*CAP
1 spare_xz[23] 0.000395697
2 *238:SET_B 0.000214472
3 *226:LO 0
4 *31:5 0.000610169
5 spare_xz[23] spare_xz[24] 0
6 spare_xz[23] *239:SET_B 0
7 *238:CLK *238:SET_B 0
8 *239:D spare_xz[23] 6.74911e-05
*RES
1 *226:LO *31:5 13.8 
2 *31:5 spare_xz[23] 7.5 
3 *31:5 *238:SET_B 8.13393 
*END

*D_NET *32 0.000911861
*CONN
*P spare_xz[24] O
*I *239:SET_B I *D sky130_fd_sc_hd__dfbbp_1
*I *227:LO O *D sky130_fd_sc_hd__conb_1
*CAP
1 spare_xz[24] 0.000210836
2 *239:SET_B 0.000147916
3 *227:LO 4.9389e-05
4 *32:7 0.000408141
5 spare_xz[24] spare_xz[26] 0
6 *239:SET_B *239:RESET_B 0
7 spare_xz[23] spare_xz[24] 0
8 spare_xz[23] *239:SET_B 0
9 *239:D *239:SET_B 4.35048e-05
10 *239:D *32:7 5.20751e-05
*RES
1 *227:LO *32:7 14.7464 
2 *32:7 spare_xz[24] 4.01786 
3 *32:7 *239:SET_B 7.35714 
*END

*D_NET *33 0.00365358
*CONN
*P spare_xz[25] O
*I *238:RESET_B I *D sky130_fd_sc_hd__dfbbp_1
*I *228:LO O *D sky130_fd_sc_hd__conb_1
*CAP
1 spare_xz[25] 0.00102228
2 *238:RESET_B 0.000334643
3 *228:LO 0.000113476
4 *33:8 0.0014704
5 spare_xz[25] spare_xz[9] 0
6 *238:RESET_B *41:24 0
7 *33:8 *41:24 0
8 spare_xfq[0] *238:RESET_B 1.92905e-05
9 spare_xfqn[0] *238:RESET_B 0.000149489
10 spare_xmx[1] *238:RESET_B 3.4896e-05
11 spare_xmx[1] *33:8 0.000115063
12 spare_xz[21] spare_xz[25] 0.000394041
*RES
1 *228:LO *33:8 15.8268 
2 *33:8 spare_xz[25] 6.1924 
3 *33:8 *238:RESET_B 20.2554 
*END

*D_NET *34 0.000835302
*CONN
*P spare_xz[26] O
*I *239:RESET_B I *D sky130_fd_sc_hd__dfbbp_1
*I *229:LO O *D sky130_fd_sc_hd__conb_1
*CAP
1 spare_xz[26] 0.000165968
2 *239:RESET_B 0.000211127
3 *229:LO 2.61003e-05
4 *34:7 0.000403195
5 spare_xz[24] spare_xz[26] 0
6 *239:D *34:7 2.89114e-05
7 *239:SET_B *239:RESET_B 0
*RES
1 *229:LO *34:7 14.3357 
2 *34:7 spare_xz[26] 2.94643 
3 *34:7 *239:RESET_B 17.3 
*END

*D_NET *35 0.00301083
*CONN
*P spare_xz[2] O
*I *242:A I *D sky130_fd_sc_hd__inv_2
*I *230:LO O *D sky130_fd_sc_hd__conb_1
*CAP
1 spare_xz[2] 0.000723885
2 *242:A 0.000226956
3 *230:LO 0.000162022
4 *35:7 0.00111286
5 *35:7 *243:A 9.90367e-05
6 spare_xi[3] *35:7 0.000149489
7 spare_xmx[0] spare_xz[2] 5.89074e-05
8 spare_xna[0] spare_xz[2] 0
9 spare_xz[13] spare_xz[2] 8.00458e-05
10 spare_xz[20] spare_xz[2] 0
11 spare_xz[20] *242:A 0
12 *244:A0 spare_xz[2] 0.000199997
13 *244:A0 *242:A 0.00019763
*RES
1 *230:LO *35:7 17.6214 
2 *35:7 *242:A 18.1214 
3 *35:7 spare_xz[2] 11.0429 
*END

*D_NET *36 0.00183649
*CONN
*P spare_xz[3] O
*I *243:A I *D sky130_fd_sc_hd__inv_2
*I *231:LO O *D sky130_fd_sc_hd__conb_1
*CAP
1 spare_xz[3] 0.000738253
2 *243:A 0.000130474
3 *231:LO 0
4 *36:4 0.000868727
5 spare_xz[11] spare_xz[3] 0
6 *35:7 *243:A 9.90367e-05
*RES
1 *231:LO *36:4 9.3 
2 *36:4 *243:A 11.4786 
3 *36:4 spare_xz[3] 17.375 
*END

*D_NET *37 0.00108084
*CONN
*P spare_xz[4] O
*I *210:A I *D sky130_fd_sc_hd__inv_8
*I *232:LO O *D sky130_fd_sc_hd__conb_1
*CAP
1 spare_xz[4] 0.000262349
2 *210:A 0.000125023
3 *232:LO 0
4 *37:5 0.000387372
5 spare_xz[4] spare_xz[5] 0
6 spare_xz[4] spare_xz[8] 2.21416e-05
7 *210:A spare_xz[5] 0
8 *210:A *246:B 0
9 spare_xz[14] spare_xz[4] 0.000166858
10 spare_xz[14] *210:A 0.0001171
11 spare_xz[18] spare_xz[4] 0
*RES
1 *232:LO *37:5 13.8 
2 *37:5 *210:A 16.6571 
3 *37:5 spare_xz[4] 7.625 
*END

*D_NET *38 0.00141054
*CONN
*P spare_xz[5] O
*I *246:A I *D sky130_fd_sc_hd__nand2_2
*I *233:LO O *D sky130_fd_sc_hd__conb_1
*CAP
1 spare_xz[5] 0.000441737
2 *246:A 3.22151e-05
3 *233:LO 0.000139118
4 *38:8 0.00061307
5 spare_xz[5] spare_xz[8] 0
6 *38:8 *246:B 6.58195e-05
7 spare_xi[3] *246:A 1.83136e-05
8 spare_xz[10] *38:8 0.000100261
9 spare_xz[4] spare_xz[5] 0
10 *210:A spare_xz[5] 0
*RES
1 *233:LO *38:8 16.9964 
2 *38:8 *246:A 14.3357 
3 *38:8 spare_xz[5] 7.66071 
*END

*D_NET *39 0.00117516
*CONN
*P spare_xz[6] O
*I *247:A I *D sky130_fd_sc_hd__nand2_2
*I *234:LO O *D sky130_fd_sc_hd__conb_1
*CAP
1 spare_xz[6] 0.000266255
2 *247:A 0
3 *234:LO 0.000179341
4 *39:5 0.000445596
5 spare_xfq[1] spare_xz[6] 0
6 spare_xfq[1] *39:5 0.00010982
7 spare_xmx[1] spare_xz[6] 0
8 spare_xna[1] spare_xz[6] 0.000162351
9 spare_xz[20] spare_xz[6] 1.17968e-05
*RES
1 *234:LO *39:5 12.7107 
2 *39:5 spare_xz[6] 9.875 
3 *39:5 *247:A 9.3 
*END

*D_NET *40 0.0034893
*CONN
*P spare_xz[7] O
*I *246:B I *D sky130_fd_sc_hd__nand2_2
*I *235:LO O *D sky130_fd_sc_hd__conb_1
*CAP
1 spare_xz[7] 0.000795774
2 *246:B 0.000747254
3 *235:LO 0
4 *40:5 0.00154303
5 spare_xfq[0] spare_xz[7] 0
6 spare_xi[3] *246:B 3.67257e-05
7 spare_xz[0] spare_xz[7] 0.000189616
8 spare_xz[14] *246:B 0
9 *210:A *246:B 0
10 *245:A0 *246:B 0
11 *22:11 spare_xz[7] 0.000111084
12 *38:8 *246:B 6.58195e-05
*RES
1 *235:LO *40:5 13.8 
2 *40:5 spare_xz[7] 7.22528 
3 *40:5 *246:B 27.6214 
*END

*D_NET *41 0.00665585
*CONN
*P spare_xz[8] O
*I *247:B I *D sky130_fd_sc_hd__nand2_2
*I *236:LO O *D sky130_fd_sc_hd__conb_1
*CAP
1 spare_xz[8] 0.000796193
2 *247:B 0.000189293
3 *236:LO 5.05799e-05
4 *41:24 0.00256534
5 *41:7 0.00200902
6 spare_xfq[1] *247:B 1.72894e-05
7 spare_xib spare_xz[8] 0
8 spare_xmx[1] *247:B 0
9 spare_xz[10] *41:24 0
10 spare_xz[20] *247:B 7.7358e-05
11 spare_xz[20] *41:24 0.00092864
12 spare_xz[4] spare_xz[8] 2.21416e-05
13 spare_xz[5] spare_xz[8] 0
14 *238:RESET_B *41:24 0
15 *33:8 *41:24 0
*RES
1 *236:LO *41:7 14.3357 
2 *41:7 *247:B 17.6214 
3 *41:7 *41:24 45.6607 
4 *41:24 spare_xz[8] 9.72592 
*END

*D_NET *42 0.000920336
*CONN
*P spare_xz[9] O
*I *248:A I *D sky130_fd_sc_hd__nor2_2
*I *237:LO O *D sky130_fd_sc_hd__conb_1
*CAP
1 spare_xz[9] 0.000295047
2 *248:A 0
3 *237:LO 0.000113789
4 *42:6 0.000408835
5 spare_xz[17] spare_xz[9] 9.25628e-05
6 spare_xz[25] spare_xz[9] 0
7 *240:A *42:6 2.38651e-06
8 *248:B spare_xz[9] 4.2313e-06
9 *248:B *42:6 3.4846e-06
10 *22:11 *42:6 0
*RES
1 *237:LO *42:6 15.7464 
2 *42:6 *248:A 13.8 
3 *42:6 spare_xz[9] 4.53905 
*END
