*SPEF "ieee 1481-1999"
*DESIGN "gpio_logic_high"
*DATE "11:11:11 Fri 11 11, 1111"
*VENDOR "OpenRCX"
*PROGRAM "Parallel Extraction"
*VERSION "1.0"
*DESIGN_FLOW "NAME_SCOPE LOCAL" "PIN_CAP NONE"
*DIVIDER /
*DELIMITER :
*BUS_DELIMITER []
*T_UNIT 1 NS
*C_UNIT 1 PF
*R_UNIT 1 OHM
*L_UNIT 1 HENRY

*NAME_MAP
*1 gpio_logic1
*2 FILLER_0_3
*3 FILLER_0_7
*4 FILLER_0_9
*5 FILLER_1_11
*6 FILLER_1_3
*7 FILLER_2_3
*8 FILLER_2_7
*9 FILLER_2_9
*10 FILLER_3_3
*11 FILLER_4_3
*12 FILLER_4_7
*13 FILLER_4_9
*14 PHY_0
*15 PHY_1
*16 PHY_2
*17 PHY_3
*18 PHY_4
*19 PHY_5
*20 PHY_6
*21 PHY_7
*22 PHY_8
*23 PHY_9
*24 TAP_10
*25 TAP_11
*26 TAP_12
*27 gpio_logic_high

*PORTS
gpio_logic1 O

*D_NET *1 0.000513616
*CONN
*P gpio_logic1 O
*I *27:HI O *D sky130_fd_sc_hd__conb_1
*CAP
1 gpio_logic1 0.000256808
2 *27:HI 0.000256808
*RES
1 *27:HI gpio_logic1 21.9631 
*END
