*SPEF "ieee 1481-1999"
*DESIGN "gpio_logic_high"
*DATE "11:11:11 Fri 11 11, 1111"
*VENDOR "OpenRCX"
*PROGRAM "Parallel Extraction"
*VERSION "1.0"
*DESIGN_FLOW "NAME_SCOPE LOCAL" "PIN_CAP NONE"
*DIVIDER /
*DELIMITER :
*BUS_DELIMITER []
*T_UNIT 1 NS
*C_UNIT 1 PF
*R_UNIT 1 OHM
*L_UNIT 1 HENRY

*NAME_MAP
*1 gpio_logic1
*2 FILLER_0_15
*3 FILLER_0_17
*4 FILLER_0_23
*5 FILLER_0_25
*6 FILLER_0_3
*7 FILLER_0_31
*8 FILLER_0_33
*9 FILLER_0_39
*10 FILLER_0_41
*11 FILLER_0_7
*12 FILLER_0_9
*13 FILLER_1_15
*14 FILLER_1_18
*15 FILLER_1_3
*16 FILLER_1_30
*17 FILLER_1_35
*18 FILLER_1_41
*19 FILLER_2_21
*20 FILLER_2_26
*21 FILLER_2_3
*22 FILLER_2_38
*23 FILLER_2_7
*24 FILLER_2_9
*25 FILLER_3_15
*26 FILLER_3_18
*27 FILLER_3_3
*28 FILLER_3_30
*29 FILLER_3_35
*30 FILLER_3_41
*31 FILLER_4_21
*32 FILLER_4_26
*33 FILLER_4_3
*34 FILLER_4_38
*35 FILLER_4_7
*36 FILLER_4_9
*37 FILLER_5_14
*38 FILLER_5_17
*39 FILLER_5_23
*40 FILLER_5_25
*41 FILLER_5_3
*42 FILLER_5_31
*43 FILLER_5_33
*44 FILLER_5_39
*45 FILLER_5_41
*46 FILLER_5_7
*47 FILLER_5_9
*48 PHY_0
*49 PHY_1
*50 PHY_10
*51 PHY_11
*52 PHY_2
*53 PHY_3
*54 PHY_4
*55 PHY_5
*56 PHY_6
*57 PHY_7
*58 PHY_8
*59 PHY_9
*60 TAP_12
*61 TAP_13
*62 TAP_14
*63 TAP_15
*64 TAP_16
*65 TAP_17
*66 TAP_18
*67 TAP_19
*68 TAP_20
*69 TAP_21
*70 TAP_22
*71 TAP_23
*72 TAP_24
*73 TAP_25
*74 TAP_26
*75 TAP_27
*76 TAP_28
*77 TAP_29
*78 gpio_logic_high

*PORTS
gpio_logic1 O

*D_NET *1 0.00283928
*CONN
*P gpio_logic1 O
*I *78:HI O *D sky130_fd_sc_hd__conb_1
*CAP
1 gpio_logic1 0.00110045
2 *78:HI 0.000319186
3 *1:7 0.00141964
*RES
1 *78:HI *1:7 42.4329 
2 *1:7 gpio_logic1 16.4471 
*END
