*SPEF "ieee 1481-1999"
*DESIGN "gpio_logic_high"
*DATE "11:11:11 Fri 11 11, 1111"
*VENDOR "OpenRCX"
*PROGRAM "Parallel Extraction"
*VERSION "1.0"
*DESIGN_FLOW "NAME_SCOPE LOCAL" "PIN_CAP NONE"
*DIVIDER /
*DELIMITER :
*BUS_DELIMITER []
*T_UNIT 1 NS
*C_UNIT 1 PF
*R_UNIT 1 OHM
*L_UNIT 1 HENRY

*NAME_MAP
*1 gpio_logic1
*2 FILLER_0_15
*3 FILLER_0_17
*4 FILLER_0_23
*5 FILLER_0_25
*6 FILLER_0_3
*7 FILLER_0_31
*8 FILLER_0_33
*9 FILLER_0_39
*10 FILLER_0_41
*11 FILLER_0_7
*12 FILLER_0_9
*13 FILLER_1_15
*14 FILLER_1_18
*15 FILLER_1_3
*16 FILLER_1_30
*17 FILLER_1_35
*18 FILLER_1_41
*19 FILLER_2_21
*20 FILLER_2_26
*21 FILLER_2_3
*22 FILLER_2_38
*23 FILLER_2_7
*24 FILLER_2_9
*25 FILLER_3_15
*26 FILLER_3_18
*27 FILLER_3_24
*28 FILLER_3_28
*29 FILLER_3_3
*30 FILLER_3_35
*31 FILLER_3_41
*32 FILLER_4_21
*33 FILLER_4_26
*34 FILLER_4_3
*35 FILLER_4_38
*36 FILLER_4_7
*37 FILLER_4_9
*38 FILLER_5_15
*39 FILLER_5_17
*40 FILLER_5_23
*41 FILLER_5_25
*42 FILLER_5_3
*43 FILLER_5_31
*44 FILLER_5_33
*45 FILLER_5_39
*46 FILLER_5_41
*47 FILLER_5_7
*48 FILLER_5_9
*49 PHY_0
*50 PHY_1
*51 PHY_10
*52 PHY_11
*53 PHY_2
*54 PHY_3
*55 PHY_4
*56 PHY_5
*57 PHY_6
*58 PHY_7
*59 PHY_8
*60 PHY_9
*61 TAP_12
*62 TAP_13
*63 TAP_14
*64 TAP_15
*65 TAP_16
*66 TAP_17
*67 TAP_18
*68 TAP_19
*69 TAP_20
*70 TAP_21
*71 TAP_22
*72 TAP_23
*73 TAP_24
*74 TAP_25
*75 TAP_26
*76 TAP_27
*77 TAP_28
*78 TAP_29
*79 gpio_logic_high

*PORTS
gpio_logic1 O

*D_NET *1 0.00168326
*CONN
*P gpio_logic1 O
*I *79:HI O *D sky130_fd_sc_hd__conb_1
*CAP
1 gpio_logic1 0.000723691
2 *79:HI 0.000117939
3 *1:7 0.000841629
*RES
1 *79:HI *1:7 39.5743 
2 *1:7 gpio_logic1 10.8129 
*END
