*SPEF "ieee 1481-1999"
*DESIGN "caravel_clocking"
*DATE "11:11:11 Fri 11 11, 1111"
*VENDOR "OpenRCX"
*PROGRAM "Parallel Extraction"
*VERSION "1.0"
*DESIGN_FLOW "NAME_SCOPE LOCAL" "PIN_CAP NONE"
*DIVIDER /
*DELIMITER :
*BUS_DELIMITER []
*T_UNIT 1 NS
*C_UNIT 1 PF
*R_UNIT 1 OHM
*L_UNIT 1 HENRY

*NAME_MAP
*3 core_clk
*4 ext_clk
*5 ext_clk_sel
*6 ext_reset
*7 pll_clk
*8 pll_clk90
*9 porb
*10 resetb
*11 resetb_sync
*12 sel2[0]
*13 sel2[1]
*14 sel2[2]
*15 sel[0]
*16 sel[1]
*17 sel[2]
*18 user_clk
*19 _000_
*20 _001_
*21 _002_
*22 _003_
*23 _004_
*24 _005_
*25 _006_
*26 _007_
*27 _008_
*28 _009_
*29 _010_
*30 _011_
*31 _012_
*32 _013_
*33 _014_
*34 _015_
*35 _016_
*36 _017_
*37 _018_
*38 _019_
*39 _020_
*40 _021_
*41 _022_
*42 _023_
*43 _024_
*44 _025_
*45 _026_
*46 _027_
*47 _028_
*48 _029_
*49 _030_
*50 _031_
*51 _032_
*52 _033_
*53 _034_
*54 _035_
*55 _036_
*56 _037_
*57 _038_
*58 _039_
*59 _040_
*60 _041_
*61 _042_
*62 _043_
*63 _044_
*64 _045_
*65 _046_
*66 _047_
*67 _048_
*68 _049_
*69 _050_
*70 _051_
*71 _052_
*72 _053_
*73 _054_
*74 _055_
*75 _056_
*76 _057_
*77 _058_
*78 _059_
*79 _060_
*80 _061_
*81 _062_
*82 _063_
*83 _064_
*84 _065_
*85 _066_
*86 _067_
*87 _068_
*88 _069_
*89 _070_
*90 _071_
*91 _072_
*92 _073_
*93 _074_
*94 _075_
*95 _076_
*96 _077_
*97 _078_
*98 _088_
*99 _089_
*100 _090_
*101 _091_
*102 _092_
*103 _093_
*104 _094_
*105 _095_
*106 _096_
*107 _097_
*108 _098_
*109 _099_
*110 _100_
*111 _101_
*112 _102_
*113 _103_
*114 _104_
*115 _105_
*116 _106_
*117 _107_
*118 _108_
*119 _109_
*120 _110_
*121 _111_
*122 _112_
*123 _113_
*124 _114_
*125 _115_
*126 _116_
*127 _117_
*128 _118_
*129 _119_
*130 _120_
*131 _121_
*132 _122_
*133 _123_
*134 _124_
*135 _125_
*136 _126_
*137 _127_
*138 _128_
*139 _129_
*140 _130_
*141 _131_
*142 _132_
*143 _133_
*144 _134_
*145 _135_
*146 _136_
*147 _137_
*148 _138_
*149 _139_
*150 _140_
*151 _141_
*152 _142_
*153 _143_
*154 _144_
*155 _145_
*156 _146_
*157 _147_
*158 _148_
*159 _149_
*160 _150_
*161 _151_
*162 _152_
*163 _153_
*164 _154_
*165 _155_
*166 _156_
*167 _157_
*168 _158_
*169 _159_
*170 _160_
*171 _161_
*172 _162_
*173 _163_
*174 _164_
*175 _165_
*176 _166_
*177 _167_
*178 _168_
*179 _169_
*180 _170_
*181 _171_
*182 _172_
*183 _173_
*184 _174_
*185 _175_
*186 _176_
*187 _177_
*188 _178_
*189 _179_
*190 _180_
*191 _181_
*192 _182_
*193 _183_
*194 _184_
*195 _185_
*196 _186_
*197 _187_
*198 _188_
*199 _189_
*200 _190_
*201 _191_
*202 _192_
*203 _193_
*204 _194_
*205 _195_
*206 _196_
*207 _197_
*208 _198_
*209 _199_
*210 _200_
*211 _201_
*212 _202_
*213 clknet_0__037_
*214 clknet_0_divider\.out
*215 clknet_0_divider2\.out
*216 clknet_0_ext_clk
*217 clknet_0_net11
*218 clknet_0_pll_clk
*219 clknet_0_pll_clk90
*220 clknet_1_0__leaf__037_
*221 clknet_1_0__leaf_divider\.out
*222 clknet_1_0__leaf_divider2\.out
*223 clknet_1_0__leaf_ext_clk
*224 clknet_1_0__leaf_pll_clk
*225 clknet_1_0__leaf_pll_clk90
*226 clknet_1_1__leaf__037_
*227 clknet_1_1__leaf_divider\.out
*228 clknet_1_1__leaf_divider2\.out
*229 clknet_1_1__leaf_ext_clk
*230 clknet_1_1__leaf_net11
*231 clknet_1_1__leaf_pll_clk
*232 clknet_1_1__leaf_pll_clk90
*233 divider\.even_0\.N\[0\]
*234 divider\.even_0\.N\[1\]
*235 divider\.even_0\.N\[2\]
*236 divider\.even_0\.counter\[0\]
*237 divider\.even_0\.counter\[1\]
*238 divider\.even_0\.counter\[2\]
*239 divider\.even_0\.out_counter
*240 divider\.even_0\.resetb
*241 divider\.odd_0\.counter2\[0\]
*242 divider\.odd_0\.counter2\[1\]
*243 divider\.odd_0\.counter2\[2\]
*244 divider\.odd_0\.counter\[0\]
*245 divider\.odd_0\.counter\[1\]
*246 divider\.odd_0\.counter\[2\]
*247 divider\.odd_0\.initial_begin\[0\]
*248 divider\.odd_0\.initial_begin\[1\]
*249 divider\.odd_0\.initial_begin\[2\]
*250 divider\.odd_0\.old_N\[0\]
*251 divider\.odd_0\.old_N\[1\]
*252 divider\.odd_0\.old_N\[2\]
*253 divider\.odd_0\.out_counter
*254 divider\.odd_0\.out_counter2
*255 divider\.odd_0\.rst_pulse
*256 divider\.out
*257 divider\.syncNp\[0\]
*258 divider\.syncNp\[1\]
*259 divider\.syncNp\[2\]
*260 divider2\.even_0\.N\[0\]
*261 divider2\.even_0\.N\[1\]
*262 divider2\.even_0\.N\[2\]
*263 divider2\.even_0\.counter\[0\]
*264 divider2\.even_0\.counter\[1\]
*265 divider2\.even_0\.counter\[2\]
*266 divider2\.even_0\.out_counter
*267 divider2\.odd_0\.counter2\[0\]
*268 divider2\.odd_0\.counter2\[1\]
*269 divider2\.odd_0\.counter2\[2\]
*270 divider2\.odd_0\.counter\[0\]
*271 divider2\.odd_0\.counter\[1\]
*272 divider2\.odd_0\.counter\[2\]
*273 divider2\.odd_0\.initial_begin\[0\]
*274 divider2\.odd_0\.initial_begin\[1\]
*275 divider2\.odd_0\.initial_begin\[2\]
*276 divider2\.odd_0\.old_N\[0\]
*277 divider2\.odd_0\.old_N\[1\]
*278 divider2\.odd_0\.old_N\[2\]
*279 divider2\.odd_0\.out_counter
*280 divider2\.odd_0\.out_counter2
*281 divider2\.odd_0\.rst_pulse
*282 divider2\.out
*283 divider2\.syncNp\[0\]
*284 divider2\.syncNp\[1\]
*285 divider2\.syncNp\[2\]
*286 ext_clk_syncd
*287 ext_clk_syncd_pre
*288 net1
*289 net10
*290 net11
*291 net12
*292 net13
*293 net14
*294 net15
*295 net16
*296 net17
*297 net18
*298 net19
*299 net2
*300 net20
*301 net21
*302 net22
*303 net23
*304 net24
*305 net25
*306 net26
*307 net27
*308 net28
*309 net29
*310 net3
*311 net30
*312 net31
*313 net32
*314 net33
*315 net34
*316 net35
*317 net36
*318 net37
*319 net38
*320 net39
*321 net4
*322 net40
*323 net41
*324 net42
*325 net43
*326 net44
*327 net45
*328 net46
*329 net5
*330 net6
*331 net7
*332 net8
*333 net9
*334 pll_clk_sel
*335 reset_delay\[0\]
*336 reset_delay\[1\]
*337 reset_delay\[2\]
*338 use_pll_first
*339 use_pll_second
*340 user_clk_buffered
*341 ANTENNA__234__A1
*342 ANTENNA__235__A1
*343 ANTENNA__236__A1
*344 ANTENNA__239__A1
*345 ANTENNA__240__A1
*346 ANTENNA__241__A1
*347 ANTENNA__242__A1
*348 ANTENNA__243__A1
*349 ANTENNA__244__A1
*350 ANTENNA__268__A1
*351 ANTENNA__268__A2
*352 ANTENNA__270__A2
*353 ANTENNA__328__A
*354 ANTENNA__330__A
*355 ANTENNA__330__B
*356 ANTENNA__331__B1
*357 ANTENNA__345__A1
*358 ANTENNA__345__A2
*359 ANTENNA__381__A_N
*360 ANTENNA__382__B
*361 ANTENNA__384__A
*362 ANTENNA__385__A
*363 ANTENNA__417__D
*364 ANTENNA__417__RESET_B
*365 ANTENNA__425__RESET_B
*366 ANTENNA__426__RESET_B
*367 ANTENNA__427__SET_B
*368 ANTENNA__428__RESET_B
*369 ANTENNA__429__SET_B
*370 ANTENNA__430__RESET_B
*371 ANTENNA__432__RESET_B
*372 ANTENNA__433__RESET_B
*373 ANTENNA__434__SET_B
*374 ANTENNA__435__RESET_B
*375 ANTENNA__439__D
*376 ANTENNA__440__SET_B
*377 ANTENNA__441__RESET_B
*378 ANTENNA__442__RESET_B
*379 ANTENNA__444__RESET_B
*380 ANTENNA__447__D
*381 ANTENNA__448__D
*382 ANTENNA__461__SET_B
*383 ANTENNA_clkbuf_0_ext_clk_A
*384 ANTENNA_clkbuf_0_pll_clk90_A
*385 ANTENNA_clkbuf_0_pll_clk_A
*386 ANTENNA_fanout26_A
*387 ANTENNA_fanout27_A
*388 ANTENNA_fanout28_A
*389 ANTENNA_fanout29_A
*390 ANTENNA_input10_A
*391 ANTENNA_input1_A
*392 ANTENNA_input2_A
*393 ANTENNA_input3_A
*394 ANTENNA_input4_A
*395 ANTENNA_input5_A
*396 ANTENNA_input6_A
*397 ANTENNA_input7_A
*398 ANTENNA_input8_A
*399 ANTENNA_input9_A
*400 FILLER_0_105
*401 FILLER_0_11
*402 FILLER_0_118
*403 FILLER_0_125
*404 FILLER_0_129
*405 FILLER_0_131
*406 FILLER_0_14
*407 FILLER_0_144
*408 FILLER_0_157
*409 FILLER_0_170
*410 FILLER_0_183
*411 FILLER_0_186
*412 FILLER_0_190
*413 FILLER_0_194
*414 FILLER_0_196
*415 FILLER_0_199
*416 FILLER_0_27
*417 FILLER_0_3
*418 FILLER_0_40
*419 FILLER_0_53
*420 FILLER_0_59
*421 FILLER_0_66
*422 FILLER_0_79
*423 FILLER_0_92
*424 FILLER_10_11
*425 FILLER_10_116
*426 FILLER_10_118
*427 FILLER_10_130
*428 FILLER_10_14
*429 FILLER_10_141
*430 FILLER_10_144
*431 FILLER_10_147
*432 FILLER_10_155
*433 FILLER_10_158
*434 FILLER_10_166
*435 FILLER_10_170
*436 FILLER_10_192
*437 FILLER_10_196
*438 FILLER_10_3
*439 FILLER_10_36
*440 FILLER_10_40
*441 FILLER_10_64
*442 FILLER_10_66
*443 FILLER_10_88
*444 FILLER_10_92
*445 FILLER_11_103
*446 FILLER_11_105
*447 FILLER_11_128
*448 FILLER_11_131
*449 FILLER_11_15
*450 FILLER_11_150
*451 FILLER_11_154
*452 FILLER_11_157
*453 FILLER_11_163
*454 FILLER_11_169
*455 FILLER_11_181
*456 FILLER_11_183
*457 FILLER_11_191
*458 FILLER_11_194
*459 FILLER_11_199
*460 FILLER_11_21
*461 FILLER_11_25
*462 FILLER_11_27
*463 FILLER_11_3
*464 FILLER_11_39
*465 FILLER_11_51
*466 FILLER_11_53
*467 FILLER_11_61
*468 FILLER_11_73
*469 FILLER_11_77
*470 FILLER_11_79
*471 FILLER_11_91
*472 FILLER_12_100
*473 FILLER_12_108
*474 FILLER_12_11
*475 FILLER_12_112
*476 FILLER_12_116
*477 FILLER_12_118
*478 FILLER_12_128
*479 FILLER_12_139
*480 FILLER_12_14
*481 FILLER_12_144
*482 FILLER_12_168
*483 FILLER_12_170
*484 FILLER_12_174
*485 FILLER_12_178
*486 FILLER_12_184
*487 FILLER_12_191
*488 FILLER_12_196
*489 FILLER_12_24
*490 FILLER_12_28
*491 FILLER_12_3
*492 FILLER_12_38
*493 FILLER_12_40
*494 FILLER_12_50
*495 FILLER_12_54
*496 FILLER_12_62
*497 FILLER_12_66
*498 FILLER_12_74
*499 FILLER_12_86
*500 FILLER_12_90
*501 FILLER_12_92
*502 FILLER_13_103
*503 FILLER_13_105
*504 FILLER_13_112
*505 FILLER_13_122
*506 FILLER_13_131
*507 FILLER_13_155
*508 FILLER_13_157
*509 FILLER_13_165
*510 FILLER_13_173
*511 FILLER_13_177
*512 FILLER_13_181
*513 FILLER_13_183
*514 FILLER_13_192
*515 FILLER_13_25
*516 FILLER_13_27
*517 FILLER_13_3
*518 FILLER_13_48
*519 FILLER_13_53
*520 FILLER_13_75
*521 FILLER_13_79
*522 FILLER_13_89
*523 FILLER_13_97
*524 FILLER_14_11
*525 FILLER_14_111
*526 FILLER_14_116
*527 FILLER_14_118
*528 FILLER_14_128
*529 FILLER_14_14
*530 FILLER_14_140
*531 FILLER_14_144
*532 FILLER_14_148
*533 FILLER_14_152
*534 FILLER_14_164
*535 FILLER_14_168
*536 FILLER_14_170
*537 FILLER_14_194
*538 FILLER_14_196
*539 FILLER_14_22
*540 FILLER_14_3
*541 FILLER_14_31
*542 FILLER_14_36
*543 FILLER_14_40
*544 FILLER_14_52
*545 FILLER_14_60
*546 FILLER_14_64
*547 FILLER_14_66
*548 FILLER_14_75
*549 FILLER_14_83
*550 FILLER_14_88
*551 FILLER_14_92
*552 FILLER_14_99
*553 FILLER_15_101
*554 FILLER_15_105
*555 FILLER_15_127
*556 FILLER_15_131
*557 FILLER_15_144
*558 FILLER_15_150
*559 FILLER_15_154
*560 FILLER_15_157
*561 FILLER_15_179
*562 FILLER_15_183
*563 FILLER_15_191
*564 FILLER_15_194
*565 FILLER_15_199
*566 FILLER_15_24
*567 FILLER_15_27
*568 FILLER_15_3
*569 FILLER_15_30
*570 FILLER_15_38
*571 FILLER_15_50
*572 FILLER_15_53
*573 FILLER_15_70
*574 FILLER_15_74
*575 FILLER_15_77
*576 FILLER_15_79
*577 FILLER_16_105
*578 FILLER_16_11
*579 FILLER_16_112
*580 FILLER_16_116
*581 FILLER_16_118
*582 FILLER_16_133
*583 FILLER_16_137
*584 FILLER_16_14
*585 FILLER_16_140
*586 FILLER_16_144
*587 FILLER_16_156
*588 FILLER_16_160
*589 FILLER_16_165
*590 FILLER_16_170
*591 FILLER_16_175
*592 FILLER_16_194
*593 FILLER_16_196
*594 FILLER_16_24
*595 FILLER_16_28
*596 FILLER_16_3
*597 FILLER_16_34
*598 FILLER_16_38
*599 FILLER_16_40
*600 FILLER_16_50
*601 FILLER_16_62
*602 FILLER_16_66
*603 FILLER_16_77
*604 FILLER_16_83
*605 FILLER_16_92
*606 FILLER_16_97
*607 FILLER_17_103
*608 FILLER_17_105
*609 FILLER_17_11
*610 FILLER_17_113
*611 FILLER_17_122
*612 FILLER_17_129
*613 FILLER_17_131
*614 FILLER_17_138
*615 FILLER_17_146
*616 FILLER_17_154
*617 FILLER_17_157
*618 FILLER_17_169
*619 FILLER_17_181
*620 FILLER_17_183
*621 FILLER_17_191
*622 FILLER_17_199
*623 FILLER_17_23
*624 FILLER_17_27
*625 FILLER_17_3
*626 FILLER_17_43
*627 FILLER_17_51
*628 FILLER_17_53
*629 FILLER_17_57
*630 FILLER_17_64
*631 FILLER_17_7
*632 FILLER_17_70
*633 FILLER_17_77
*634 FILLER_17_79
*635 FILLER_18_104
*636 FILLER_18_11
*637 FILLER_18_116
*638 FILLER_18_118
*639 FILLER_18_128
*640 FILLER_18_139
*641 FILLER_18_14
*642 FILLER_18_144
*643 FILLER_18_156
*644 FILLER_18_164
*645 FILLER_18_168
*646 FILLER_18_170
*647 FILLER_18_184
*648 FILLER_18_188
*649 FILLER_18_191
*650 FILLER_18_196
*651 FILLER_18_25
*652 FILLER_18_3
*653 FILLER_18_36
*654 FILLER_18_40
*655 FILLER_18_48
*656 FILLER_18_60
*657 FILLER_18_64
*658 FILLER_18_66
*659 FILLER_18_74
*660 FILLER_18_87
*661 FILLER_18_92
*662 FILLER_19_103
*663 FILLER_19_105
*664 FILLER_19_11
*665 FILLER_19_126
*666 FILLER_19_131
*667 FILLER_19_143
*668 FILLER_19_149
*669 FILLER_19_153
*670 FILLER_19_157
*671 FILLER_19_179
*672 FILLER_19_183
*673 FILLER_19_189
*674 FILLER_19_196
*675 FILLER_19_21
*676 FILLER_19_25
*677 FILLER_19_27
*678 FILLER_19_3
*679 FILLER_19_42
*680 FILLER_19_50
*681 FILLER_19_53
*682 FILLER_19_59
*683 FILLER_19_71
*684 FILLER_19_77
*685 FILLER_19_79
*686 FILLER_1_103
*687 FILLER_1_105
*688 FILLER_1_110
*689 FILLER_1_114
*690 FILLER_1_119
*691 FILLER_1_126
*692 FILLER_1_131
*693 FILLER_1_134
*694 FILLER_1_140
*695 FILLER_1_148
*696 FILLER_1_15
*697 FILLER_1_157
*698 FILLER_1_165
*699 FILLER_1_178
*700 FILLER_1_183
*701 FILLER_1_193
*702 FILLER_1_198
*703 FILLER_1_23
*704 FILLER_1_27
*705 FILLER_1_3
*706 FILLER_1_36
*707 FILLER_1_48
*708 FILLER_1_53
*709 FILLER_1_57
*710 FILLER_1_63
*711 FILLER_1_69
*712 FILLER_1_77
*713 FILLER_1_79
*714 FILLER_1_87
*715 FILLER_1_95
*716 FILLER_20_11
*717 FILLER_20_114
*718 FILLER_20_118
*719 FILLER_20_130
*720 FILLER_20_14
*721 FILLER_20_141
*722 FILLER_20_144
*723 FILLER_20_168
*724 FILLER_20_170
*725 FILLER_20_176
*726 FILLER_20_194
*727 FILLER_20_196
*728 FILLER_20_199
*729 FILLER_20_3
*730 FILLER_20_36
*731 FILLER_20_40
*732 FILLER_20_64
*733 FILLER_20_66
*734 FILLER_20_69
*735 FILLER_20_83
*736 FILLER_20_88
*737 FILLER_20_92
*738 FILLER_21_103
*739 FILLER_21_105
*740 FILLER_21_117
*741 FILLER_21_123
*742 FILLER_21_129
*743 FILLER_21_131
*744 FILLER_21_137
*745 FILLER_21_145
*746 FILLER_21_15
*747 FILLER_21_154
*748 FILLER_21_157
*749 FILLER_21_165
*750 FILLER_21_169
*751 FILLER_21_176
*752 FILLER_21_181
*753 FILLER_21_183
*754 FILLER_21_186
*755 FILLER_21_191
*756 FILLER_21_195
*757 FILLER_21_199
*758 FILLER_21_21
*759 FILLER_21_25
*760 FILLER_21_27
*761 FILLER_21_3
*762 FILLER_21_33
*763 FILLER_21_50
*764 FILLER_21_53
*765 FILLER_21_60
*766 FILLER_21_66
*767 FILLER_21_74
*768 FILLER_21_77
*769 FILLER_21_79
*770 FILLER_22_104
*771 FILLER_22_11
*772 FILLER_22_116
*773 FILLER_22_118
*774 FILLER_22_123
*775 FILLER_22_131
*776 FILLER_22_138
*777 FILLER_22_14
*778 FILLER_22_142
*779 FILLER_22_144
*780 FILLER_22_148
*781 FILLER_22_166
*782 FILLER_22_170
*783 FILLER_22_181
*784 FILLER_22_190
*785 FILLER_22_194
*786 FILLER_22_196
*787 FILLER_22_24
*788 FILLER_22_3
*789 FILLER_22_37
*790 FILLER_22_40
*791 FILLER_22_62
*792 FILLER_22_66
*793 FILLER_22_74
*794 FILLER_22_77
*795 FILLER_22_88
*796 FILLER_22_92
*797 FILLER_23_100
*798 FILLER_23_105
*799 FILLER_23_129
*800 FILLER_23_131
*801 FILLER_23_155
*802 FILLER_23_157
*803 FILLER_23_181
*804 FILLER_23_183
*805 FILLER_23_195
*806 FILLER_23_199
*807 FILLER_23_25
*808 FILLER_23_27
*809 FILLER_23_3
*810 FILLER_23_48
*811 FILLER_23_53
*812 FILLER_23_75
*813 FILLER_23_79
*814 FILLER_24_11
*815 FILLER_24_114
*816 FILLER_24_118
*817 FILLER_24_122
*818 FILLER_24_134
*819 FILLER_24_14
*820 FILLER_24_142
*821 FILLER_24_144
*822 FILLER_24_154
*823 FILLER_24_160
*824 FILLER_24_168
*825 FILLER_24_170
*826 FILLER_24_194
*827 FILLER_24_196
*828 FILLER_24_26
*829 FILLER_24_3
*830 FILLER_24_33
*831 FILLER_24_40
*832 FILLER_24_52
*833 FILLER_24_55
*834 FILLER_24_63
*835 FILLER_24_66
*836 FILLER_24_75
*837 FILLER_24_80
*838 FILLER_24_84
*839 FILLER_24_90
*840 FILLER_24_92
*841 FILLER_25_101
*842 FILLER_25_105
*843 FILLER_25_108
*844 FILLER_25_116
*845 FILLER_25_122
*846 FILLER_25_129
*847 FILLER_25_131
*848 FILLER_25_136
*849 FILLER_25_143
*850 FILLER_25_154
*851 FILLER_25_157
*852 FILLER_25_164
*853 FILLER_25_171
*854 FILLER_25_177
*855 FILLER_25_181
*856 FILLER_25_183
*857 FILLER_25_192
*858 FILLER_25_198
*859 FILLER_25_24
*860 FILLER_25_27
*861 FILLER_25_3
*862 FILLER_25_37
*863 FILLER_25_43
*864 FILLER_25_47
*865 FILLER_25_51
*866 FILLER_25_53
*867 FILLER_25_75
*868 FILLER_25_79
*869 FILLER_26_11
*870 FILLER_26_113
*871 FILLER_26_118
*872 FILLER_26_124
*873 FILLER_26_129
*874 FILLER_26_137
*875 FILLER_26_14
*876 FILLER_26_142
*877 FILLER_26_144
*878 FILLER_26_155
*879 FILLER_26_167
*880 FILLER_26_170
*881 FILLER_26_194
*882 FILLER_26_196
*883 FILLER_26_24
*884 FILLER_26_3
*885 FILLER_26_33
*886 FILLER_26_38
*887 FILLER_26_40
*888 FILLER_26_50
*889 FILLER_26_56
*890 FILLER_26_64
*891 FILLER_26_66
*892 FILLER_26_87
*893 FILLER_26_92
*894 FILLER_27_102
*895 FILLER_27_105
*896 FILLER_27_129
*897 FILLER_27_131
*898 FILLER_27_141
*899 FILLER_27_145
*900 FILLER_27_15
*901 FILLER_27_155
*902 FILLER_27_157
*903 FILLER_27_178
*904 FILLER_27_183
*905 FILLER_27_191
*906 FILLER_27_194
*907 FILLER_27_199
*908 FILLER_27_23
*909 FILLER_27_27
*910 FILLER_27_3
*911 FILLER_27_48
*912 FILLER_27_53
*913 FILLER_27_75
*914 FILLER_27_79
*915 FILLER_28_11
*916 FILLER_28_113
*917 FILLER_28_118
*918 FILLER_28_139
*919 FILLER_28_14
*920 FILLER_28_144
*921 FILLER_28_165
*922 FILLER_28_170
*923 FILLER_28_194
*924 FILLER_28_196
*925 FILLER_28_199
*926 FILLER_28_22
*927 FILLER_28_27
*928 FILLER_28_3
*929 FILLER_28_40
*930 FILLER_28_63
*931 FILLER_28_66
*932 FILLER_28_90
*933 FILLER_28_92
*934 FILLER_29_103
*935 FILLER_29_105
*936 FILLER_29_11
*937 FILLER_29_126
*938 FILLER_29_131
*939 FILLER_29_139
*940 FILLER_29_146
*941 FILLER_29_155
*942 FILLER_29_157
*943 FILLER_29_18
*944 FILLER_29_181
*945 FILLER_29_183
*946 FILLER_29_192
*947 FILLER_29_199
*948 FILLER_29_25
*949 FILLER_29_27
*950 FILLER_29_3
*951 FILLER_29_31
*952 FILLER_29_39
*953 FILLER_29_51
*954 FILLER_29_53
*955 FILLER_29_75
*956 FILLER_29_79
*957 FILLER_2_101
*958 FILLER_2_108
*959 FILLER_2_11
*960 FILLER_2_114
*961 FILLER_2_118
*962 FILLER_2_122
*963 FILLER_2_132
*964 FILLER_2_14
*965 FILLER_2_142
*966 FILLER_2_144
*967 FILLER_2_156
*968 FILLER_2_160
*969 FILLER_2_168
*970 FILLER_2_170
*971 FILLER_2_180
*972 FILLER_2_191
*973 FILLER_2_196
*974 FILLER_2_199
*975 FILLER_2_26
*976 FILLER_2_3
*977 FILLER_2_38
*978 FILLER_2_40
*979 FILLER_2_51
*980 FILLER_2_58
*981 FILLER_2_64
*982 FILLER_2_66
*983 FILLER_2_76
*984 FILLER_2_80
*985 FILLER_2_90
*986 FILLER_2_92
*987 FILLER_30_114
*988 FILLER_30_118
*989 FILLER_30_12
*990 FILLER_30_130
*991 FILLER_30_14
*992 FILLER_30_142
*993 FILLER_30_144
*994 FILLER_30_168
*995 FILLER_30_170
*996 FILLER_30_194
*997 FILLER_30_196
*998 FILLER_30_20
*999 FILLER_30_28
*1000 FILLER_30_3
*1001 FILLER_30_38
*1002 FILLER_30_40
*1003 FILLER_30_64
*1004 FILLER_30_66
*1005 FILLER_30_89
*1006 FILLER_30_92
*1007 FILLER_31_103
*1008 FILLER_31_105
*1009 FILLER_31_126
*1010 FILLER_31_131
*1011 FILLER_31_136
*1012 FILLER_31_154
*1013 FILLER_31_157
*1014 FILLER_31_179
*1015 FILLER_31_183
*1016 FILLER_31_188
*1017 FILLER_31_24
*1018 FILLER_31_27
*1019 FILLER_31_3
*1020 FILLER_31_33
*1021 FILLER_31_51
*1022 FILLER_31_53
*1023 FILLER_31_74
*1024 FILLER_31_79
*1025 FILLER_32_101
*1026 FILLER_32_105
*1027 FILLER_32_115
*1028 FILLER_32_118
*1029 FILLER_32_12
*1030 FILLER_32_127
*1031 FILLER_32_131
*1032 FILLER_32_139
*1033 FILLER_32_14
*1034 FILLER_32_144
*1035 FILLER_32_153
*1036 FILLER_32_157
*1037 FILLER_32_164
*1038 FILLER_32_168
*1039 FILLER_32_170
*1040 FILLER_32_179
*1041 FILLER_32_18
*1042 FILLER_32_183
*1043 FILLER_32_194
*1044 FILLER_32_196
*1045 FILLER_32_199
*1046 FILLER_32_25
*1047 FILLER_32_27
*1048 FILLER_32_3
*1049 FILLER_32_30
*1050 FILLER_32_38
*1051 FILLER_32_40
*1052 FILLER_32_49
*1053 FILLER_32_53
*1054 FILLER_32_64
*1055 FILLER_32_66
*1056 FILLER_32_69
*1057 FILLER_32_77
*1058 FILLER_32_79
*1059 FILLER_32_8
*1060 FILLER_32_89
*1061 FILLER_32_92
*1062 FILLER_3_105
*1063 FILLER_3_117
*1064 FILLER_3_129
*1065 FILLER_3_131
*1066 FILLER_3_134
*1067 FILLER_3_146
*1068 FILLER_3_150
*1069 FILLER_3_153
*1070 FILLER_3_157
*1071 FILLER_3_167
*1072 FILLER_3_179
*1073 FILLER_3_18
*1074 FILLER_3_183
*1075 FILLER_3_188
*1076 FILLER_3_199
*1077 FILLER_3_24
*1078 FILLER_3_27
*1079 FILLER_3_3
*1080 FILLER_3_38
*1081 FILLER_3_50
*1082 FILLER_3_53
*1083 FILLER_3_65
*1084 FILLER_3_77
*1085 FILLER_3_79
*1086 FILLER_3_96
*1087 FILLER_4_100
*1088 FILLER_4_11
*1089 FILLER_4_110
*1090 FILLER_4_116
*1091 FILLER_4_118
*1092 FILLER_4_129
*1093 FILLER_4_14
*1094 FILLER_4_142
*1095 FILLER_4_144
*1096 FILLER_4_148
*1097 FILLER_4_152
*1098 FILLER_4_167
*1099 FILLER_4_170
*1100 FILLER_4_182
*1101 FILLER_4_194
*1102 FILLER_4_196
*1103 FILLER_4_26
*1104 FILLER_4_3
*1105 FILLER_4_38
*1106 FILLER_4_40
*1107 FILLER_4_52
*1108 FILLER_4_56
*1109 FILLER_4_64
*1110 FILLER_4_66
*1111 FILLER_4_83
*1112 FILLER_4_92
*1113 FILLER_5_101
*1114 FILLER_5_105
*1115 FILLER_5_115
*1116 FILLER_5_123
*1117 FILLER_5_129
*1118 FILLER_5_131
*1119 FILLER_5_143
*1120 FILLER_5_151
*1121 FILLER_5_155
*1122 FILLER_5_157
*1123 FILLER_5_167
*1124 FILLER_5_171
*1125 FILLER_5_181
*1126 FILLER_5_183
*1127 FILLER_5_190
*1128 FILLER_5_194
*1129 FILLER_5_199
*1130 FILLER_5_21
*1131 FILLER_5_25
*1132 FILLER_5_27
*1133 FILLER_5_3
*1134 FILLER_5_39
*1135 FILLER_5_48
*1136 FILLER_5_53
*1137 FILLER_5_63
*1138 FILLER_5_75
*1139 FILLER_5_79
*1140 FILLER_5_89
*1141 FILLER_5_9
*1142 FILLER_6_10
*1143 FILLER_6_109
*1144 FILLER_6_118
*1145 FILLER_6_126
*1146 FILLER_6_14
*1147 FILLER_6_140
*1148 FILLER_6_144
*1149 FILLER_6_150
*1150 FILLER_6_155
*1151 FILLER_6_159
*1152 FILLER_6_167
*1153 FILLER_6_170
*1154 FILLER_6_187
*1155 FILLER_6_194
*1156 FILLER_6_196
*1157 FILLER_6_21
*1158 FILLER_6_3
*1159 FILLER_6_33
*1160 FILLER_6_37
*1161 FILLER_6_40
*1162 FILLER_6_58
*1163 FILLER_6_64
*1164 FILLER_6_66
*1165 FILLER_6_76
*1166 FILLER_6_88
*1167 FILLER_6_92
*1168 FILLER_6_97
*1169 FILLER_7_101
*1170 FILLER_7_105
*1171 FILLER_7_129
*1172 FILLER_7_131
*1173 FILLER_7_139
*1174 FILLER_7_15
*1175 FILLER_7_151
*1176 FILLER_7_155
*1177 FILLER_7_157
*1178 FILLER_7_160
*1179 FILLER_7_164
*1180 FILLER_7_176
*1181 FILLER_7_183
*1182 FILLER_7_195
*1183 FILLER_7_199
*1184 FILLER_7_21
*1185 FILLER_7_25
*1186 FILLER_7_27
*1187 FILLER_7_3
*1188 FILLER_7_35
*1189 FILLER_7_42
*1190 FILLER_7_46
*1191 FILLER_7_51
*1192 FILLER_7_53
*1193 FILLER_7_65
*1194 FILLER_7_77
*1195 FILLER_7_79
*1196 FILLER_7_85
*1197 FILLER_7_91
*1198 FILLER_8_11
*1199 FILLER_8_113
*1200 FILLER_8_118
*1201 FILLER_8_14
*1202 FILLER_8_141
*1203 FILLER_8_144
*1204 FILLER_8_168
*1205 FILLER_8_170
*1206 FILLER_8_192
*1207 FILLER_8_196
*1208 FILLER_8_25
*1209 FILLER_8_3
*1210 FILLER_8_37
*1211 FILLER_8_40
*1212 FILLER_8_52
*1213 FILLER_8_64
*1214 FILLER_8_66
*1215 FILLER_8_77
*1216 FILLER_8_83
*1217 FILLER_8_88
*1218 FILLER_8_92
*1219 FILLER_9_103
*1220 FILLER_9_105
*1221 FILLER_9_117
*1222 FILLER_9_129
*1223 FILLER_9_131
*1224 FILLER_9_143
*1225 FILLER_9_155
*1226 FILLER_9_157
*1227 FILLER_9_181
*1228 FILLER_9_183
*1229 FILLER_9_191
*1230 FILLER_9_199
*1231 FILLER_9_24
*1232 FILLER_9_27
*1233 FILLER_9_3
*1234 FILLER_9_30
*1235 FILLER_9_38
*1236 FILLER_9_44
*1237 FILLER_9_51
*1238 FILLER_9_53
*1239 FILLER_9_61
*1240 FILLER_9_67
*1241 FILLER_9_75
*1242 FILLER_9_79
*1243 FILLER_9_85
*1244 FILLER_9_89
*1245 FILLER_9_93
*1246 FILLER_9_97
*1247 PHY_0
*1248 PHY_1
*1249 PHY_10
*1250 PHY_11
*1251 PHY_12
*1252 PHY_13
*1253 PHY_14
*1254 PHY_15
*1255 PHY_16
*1256 PHY_17
*1257 PHY_18
*1258 PHY_19
*1259 PHY_2
*1260 PHY_20
*1261 PHY_21
*1262 PHY_22
*1263 PHY_23
*1264 PHY_24
*1265 PHY_25
*1266 PHY_26
*1267 PHY_27
*1268 PHY_28
*1269 PHY_29
*1270 PHY_3
*1271 PHY_30
*1272 PHY_31
*1273 PHY_32
*1274 PHY_33
*1275 PHY_34
*1276 PHY_35
*1277 PHY_36
*1278 PHY_37
*1279 PHY_38
*1280 PHY_39
*1281 PHY_4
*1282 PHY_40
*1283 PHY_41
*1284 PHY_42
*1285 PHY_43
*1286 PHY_44
*1287 PHY_45
*1288 PHY_46
*1289 PHY_47
*1290 PHY_48
*1291 PHY_49
*1292 PHY_5
*1293 PHY_50
*1294 PHY_51
*1295 PHY_52
*1296 PHY_53
*1297 PHY_54
*1298 PHY_55
*1299 PHY_56
*1300 PHY_57
*1301 PHY_58
*1302 PHY_59
*1303 PHY_6
*1304 PHY_60
*1305 PHY_61
*1306 PHY_62
*1307 PHY_63
*1308 PHY_64
*1309 PHY_65
*1310 PHY_7
*1311 PHY_8
*1312 PHY_9
*1313 TAP_100
*1314 TAP_101
*1315 TAP_102
*1316 TAP_103
*1317 TAP_104
*1318 TAP_105
*1319 TAP_106
*1320 TAP_107
*1321 TAP_108
*1322 TAP_109
*1323 TAP_110
*1324 TAP_111
*1325 TAP_112
*1326 TAP_113
*1327 TAP_114
*1328 TAP_115
*1329 TAP_116
*1330 TAP_117
*1331 TAP_118
*1332 TAP_119
*1333 TAP_120
*1334 TAP_121
*1335 TAP_122
*1336 TAP_123
*1337 TAP_124
*1338 TAP_125
*1339 TAP_126
*1340 TAP_127
*1341 TAP_128
*1342 TAP_129
*1343 TAP_130
*1344 TAP_131
*1345 TAP_132
*1346 TAP_133
*1347 TAP_134
*1348 TAP_135
*1349 TAP_136
*1350 TAP_137
*1351 TAP_138
*1352 TAP_139
*1353 TAP_140
*1354 TAP_141
*1355 TAP_142
*1356 TAP_143
*1357 TAP_144
*1358 TAP_145
*1359 TAP_146
*1360 TAP_147
*1361 TAP_148
*1362 TAP_149
*1363 TAP_150
*1364 TAP_151
*1365 TAP_152
*1366 TAP_153
*1367 TAP_154
*1368 TAP_155
*1369 TAP_156
*1370 TAP_157
*1371 TAP_158
*1372 TAP_159
*1373 TAP_160
*1374 TAP_161
*1375 TAP_162
*1376 TAP_163
*1377 TAP_164
*1378 TAP_165
*1379 TAP_166
*1380 TAP_167
*1381 TAP_168
*1382 TAP_169
*1383 TAP_170
*1384 TAP_171
*1385 TAP_172
*1386 TAP_173
*1387 TAP_174
*1388 TAP_175
*1389 TAP_176
*1390 TAP_177
*1391 TAP_178
*1392 TAP_179
*1393 TAP_180
*1394 TAP_181
*1395 TAP_182
*1396 TAP_183
*1397 TAP_184
*1398 TAP_185
*1399 TAP_186
*1400 TAP_187
*1401 TAP_188
*1402 TAP_189
*1403 TAP_190
*1404 TAP_191
*1405 TAP_192
*1406 TAP_193
*1407 TAP_194
*1408 TAP_195
*1409 TAP_196
*1410 TAP_197
*1411 TAP_198
*1412 TAP_199
*1413 TAP_200
*1414 TAP_201
*1415 TAP_202
*1416 TAP_203
*1417 TAP_204
*1418 TAP_205
*1419 TAP_206
*1420 TAP_207
*1421 TAP_208
*1422 TAP_209
*1423 TAP_210
*1424 TAP_211
*1425 TAP_212
*1426 TAP_213
*1427 TAP_214
*1428 TAP_215
*1429 TAP_216
*1430 TAP_217
*1431 TAP_218
*1432 TAP_219
*1433 TAP_220
*1434 TAP_221
*1435 TAP_222
*1436 TAP_223
*1437 TAP_224
*1438 TAP_225
*1439 TAP_226
*1440 TAP_227
*1441 TAP_228
*1442 TAP_229
*1443 TAP_230
*1444 TAP_231
*1445 TAP_232
*1446 TAP_233
*1447 TAP_234
*1448 TAP_235
*1449 TAP_236
*1450 TAP_237
*1451 TAP_238
*1452 TAP_239
*1453 TAP_240
*1454 TAP_241
*1455 TAP_242
*1456 TAP_243
*1457 TAP_244
*1458 TAP_245
*1459 TAP_246
*1460 TAP_247
*1461 TAP_248
*1462 TAP_249
*1463 TAP_250
*1464 TAP_251
*1465 TAP_252
*1466 TAP_253
*1467 TAP_254
*1468 TAP_255
*1469 TAP_256
*1470 TAP_257
*1471 TAP_258
*1472 TAP_259
*1473 TAP_260
*1474 TAP_261
*1475 TAP_262
*1476 TAP_263
*1477 TAP_264
*1478 TAP_265
*1479 TAP_266
*1480 TAP_267
*1481 TAP_268
*1482 TAP_269
*1483 TAP_270
*1484 TAP_271
*1485 TAP_272
*1486 TAP_273
*1487 TAP_274
*1488 TAP_275
*1489 TAP_276
*1490 TAP_277
*1491 TAP_278
*1492 TAP_279
*1493 TAP_280
*1494 TAP_281
*1495 TAP_282
*1496 TAP_283
*1497 TAP_284
*1498 TAP_285
*1499 TAP_286
*1500 TAP_287
*1501 TAP_288
*1502 TAP_289
*1503 TAP_290
*1504 TAP_291
*1505 TAP_292
*1506 TAP_293
*1507 TAP_294
*1508 TAP_295
*1509 TAP_296
*1510 TAP_297
*1511 TAP_298
*1512 TAP_299
*1513 TAP_300
*1514 TAP_301
*1515 TAP_302
*1516 TAP_303
*1517 TAP_304
*1518 TAP_305
*1519 TAP_306
*1520 TAP_307
*1521 TAP_308
*1522 TAP_309
*1523 TAP_310
*1524 TAP_311
*1525 TAP_312
*1526 TAP_313
*1527 TAP_314
*1528 TAP_315
*1529 TAP_316
*1530 TAP_317
*1531 TAP_318
*1532 TAP_319
*1533 TAP_320
*1534 TAP_321
*1535 TAP_322
*1536 TAP_323
*1537 TAP_324
*1538 TAP_325
*1539 TAP_326
*1540 TAP_327
*1541 TAP_66
*1542 TAP_67
*1543 TAP_68
*1544 TAP_69
*1545 TAP_70
*1546 TAP_71
*1547 TAP_72
*1548 TAP_73
*1549 TAP_74
*1550 TAP_75
*1551 TAP_76
*1552 TAP_77
*1553 TAP_78
*1554 TAP_79
*1555 TAP_80
*1556 TAP_81
*1557 TAP_82
*1558 TAP_83
*1559 TAP_84
*1560 TAP_85
*1561 TAP_86
*1562 TAP_87
*1563 TAP_88
*1564 TAP_89
*1565 TAP_90
*1566 TAP_91
*1567 TAP_92
*1568 TAP_93
*1569 TAP_94
*1570 TAP_95
*1571 TAP_96
*1572 TAP_97
*1573 TAP_98
*1574 TAP_99
*1575 _204_
*1576 _205_
*1577 _206_
*1578 _207_
*1579 _208_
*1580 _209_
*1581 _210_
*1582 _211_
*1583 _212_
*1584 _213_
*1585 _214_
*1586 _215_
*1587 _216_
*1588 _217_
*1589 _218_
*1590 _219_
*1591 _220_
*1592 _221_
*1593 _222_
*1594 _223_
*1595 _224_
*1596 _225_
*1597 _226_
*1598 _227_
*1599 _228_
*1600 _229_
*1601 _230_
*1602 _231_
*1603 _232_
*1604 _233_
*1605 _234_
*1606 _235_
*1607 _236_
*1608 _237_
*1609 _238_
*1610 _239_
*1611 _240_
*1612 _241_
*1613 _242_
*1614 _243_
*1615 _244_
*1616 _245_
*1617 _246_
*1618 _247_
*1619 _248_
*1620 _249_
*1621 _250_
*1622 _251_
*1623 _252_
*1624 _253_
*1625 _254_
*1626 _255_
*1627 _256_
*1628 _257__7
*1629 _258_
*1630 _259__4
*1631 _260_
*1632 _261_
*1633 _262__1
*1634 _263_
*1635 _264_
*1636 _265_
*1637 _266_
*1638 _267_
*1639 _268_
*1640 _269_
*1641 _270_
*1642 _271_
*1643 _272_
*1644 _273_
*1645 _274_
*1646 _275_
*1647 _276_
*1648 _277_
*1649 _278_
*1650 _279_
*1651 _280_
*1652 _281_
*1653 _282_
*1654 _283_
*1655 _284_
*1656 _285_
*1657 _286_
*1658 _287_
*1659 _288_
*1660 _289_
*1661 _290_
*1662 _291_
*1663 _292_
*1664 _293_
*1665 _294_
*1666 _295_
*1667 _296_
*1668 _297_
*1669 _298_
*1670 _299_
*1671 _300_
*1672 _301_
*1673 _302_
*1674 _303_
*1675 _304_
*1676 _305_
*1677 _306_
*1678 _307_
*1679 _308_
*1680 _309_
*1681 _310_
*1682 _311_
*1683 _312_
*1684 _313_
*1685 _314_
*1686 _315_
*1687 _316_
*1688 _317_
*1689 _318_
*1690 _319_
*1691 _320_
*1692 _321_
*1693 _322_
*1694 _323_
*1695 _324_
*1696 _325_
*1697 _326_
*1698 _327_
*1699 _328_
*1700 _329_
*1701 _330_
*1702 _331_
*1703 _332_
*1704 _333_
*1705 _334_
*1706 _335_
*1707 _336_
*1708 _337_
*1709 _338_
*1710 _339_
*1711 _340_
*1712 _341_
*1713 _342_
*1714 _343_
*1715 _344_
*1716 _345_
*1717 _346_
*1718 _347_
*1719 _348_
*1720 _349_
*1721 _350_
*1722 _351_
*1723 _352_
*1724 _353_
*1725 _354_
*1726 _355_
*1727 _356_
*1728 _357_
*1729 _358_
*1730 _359_
*1731 _360_
*1732 _361_
*1733 _362_
*1734 _363_
*1735 _364_
*1736 _365_
*1737 _366_
*1738 _367_
*1739 _368_
*1740 _369_
*1741 _370_
*1742 _371_
*1743 _372_
*1744 _373_
*1745 _374_
*1746 _375_
*1747 _376_
*1748 _377_
*1749 _378_
*1750 _379_
*1751 _380_
*1752 _381_
*1753 _382_
*1754 _383_
*1755 _384_
*1756 _385_
*1757 _386_
*1758 _387_
*1759 _388_
*1760 _389_
*1761 _390_
*1762 _391_
*1763 _392_
*1764 _393_
*1765 _394_
*1766 _395_
*1767 _396_
*1768 _397_
*1769 _398_
*1770 _399_
*1771 _400_
*1772 _401_
*1773 _402_
*1774 _403_
*1775 _404_
*1776 _405_
*1777 _406_
*1778 _407_
*1779 _408__8
*1780 _409__9
*1781 _410__5
*1782 _411__6
*1783 _412__2
*1784 _413__3
*1785 _414_
*1786 _415_
*1787 _416_
*1788 _416__31
*1789 _417_
*1790 _418_
*1791 _419_
*1792 _420_
*1793 _421_
*1794 _422_
*1795 _423_
*1796 _424_
*1797 _425_
*1798 _426_
*1799 _427_
*1800 _428_
*1801 _429_
*1802 _430_
*1803 _431_
*1804 _432_
*1805 _433_
*1806 _434_
*1807 _435_
*1808 _436_
*1809 _437_
*1810 _438_
*1811 _439_
*1812 _440_
*1813 _441_
*1814 _442_
*1815 _443_
*1816 _444_
*1817 _445_