*SPEF "ieee 1481-1999"
*DESIGN "caravel"
*DATE "11:11:11 Fri 11 11, 1111"
*VENDOR "OpenRCX"
*PROGRAM "Parallel Extraction"
*VERSION "1.0"
*DESIGN_FLOW "NAME_SCOPE LOCAL" "PIN_CAP NONE"
*DIVIDER /
*DELIMITER :
*BUS_DELIMITER []
*T_UNIT 1 NS
*C_UNIT 1 PF
*R_UNIT 1 OHM
*L_UNIT 1 HENRY

*NAME_MAP
*1 clock
*2 flash_clk
*3 flash_csb
*4 flash_io0
*5 flash_io1
*6 gpio
*7 mprj_io[0]
*8 mprj_io[10]
*9 mprj_io[11]
*10 mprj_io[12]
*11 mprj_io[13]
*12 mprj_io[14]
*13 mprj_io[15]
*14 mprj_io[16]
*15 mprj_io[17]
*16 mprj_io[18]
*17 mprj_io[19]
*18 mprj_io[1]
*19 mprj_io[20]
*20 mprj_io[21]
*21 mprj_io[22]
*22 mprj_io[23]
*23 mprj_io[24]
*24 mprj_io[25]
*25 mprj_io[26]
*26 mprj_io[27]
*27 mprj_io[28]
*28 mprj_io[29]
*29 mprj_io[2]
*30 mprj_io[30]
*31 mprj_io[31]
*32 mprj_io[32]
*33 mprj_io[33]
*34 mprj_io[34]
*35 mprj_io[35]
*36 mprj_io[36]
*37 mprj_io[37]
*38 mprj_io[3]
*39 mprj_io[4]
*40 mprj_io[5]
*41 mprj_io[6]
*42 mprj_io[7]
*43 mprj_io[8]
*44 mprj_io[9]
*45 resetb
*46 vccd
*47 vccd1
*48 vccd2
*49 vdda
*50 vdda1
*51 vdda1_2
*52 vdda2
*53 vddio
*54 vddio_2
*55 vssa
*56 vssa1
*57 vssa1_2
*58 vssa2
*59 vssd
*60 vssd1
*61 vssd2
*62 vssio
*63 vssio_2
*64 caravel_clk
*65 caravel_clk2
*66 caravel_clk_buf
*67 caravel_rstn
*68 caravel_rstn_buf
*69 clk_passthru
*70 clock_core
*71 clock_core_buf
*72 debug_in
*73 debug_mode
*74 debug_oeb
*75 debug_out
*76 ext_clk_sel
*77 ext_reset
*78 flash_clk_core
*79 flash_clk_frame
*80 flash_clk_frame_buf
*81 flash_clk_oeb
*82 flash_clk_oeb_buf
*83 flash_csb_core
*84 flash_csb_frame
*85 flash_csb_frame_buf
*86 flash_csb_oeb
*87 flash_csb_oeb_buf
*88 flash_io0_di
*89 flash_io0_di_buf
*90 flash_io0_di_core
*91 flash_io0_do
*92 flash_io0_do_buf
*93 flash_io0_do_core
*94 flash_io0_ieb
*95 flash_io0_ieb_buf
*96 flash_io0_oeb
*97 flash_io0_oeb_buf
*98 flash_io0_oeb_core
*99 flash_io1_di
*100 flash_io1_di_buf
*101 flash_io1_di_core
*102 flash_io1_do
*103 flash_io1_do_buf
*104 flash_io1_do_core
*105 flash_io1_ieb
*106 flash_io1_ieb_buf
*107 flash_io1_oeb
*108 flash_io1_oeb_buf
*109 flash_io1_oeb_core
*110 flash_io2_di_core
*111 flash_io2_do_core
*112 flash_io2_oeb_core
*113 flash_io3_di_core
*114 flash_io3_do_core
*115 flash_io3_oeb_core
*116 gpio_clock_1\[0\]
*117 gpio_clock_1\[10\]
*118 gpio_clock_1\[11\]
*119 gpio_clock_1\[12\]
*120 gpio_clock_1\[13\]
*121 gpio_clock_1\[14\]
*122 gpio_clock_1\[15\]
*123 gpio_clock_1\[16\]
*124 gpio_clock_1\[17\]
*125 gpio_clock_1\[1\]
*126 gpio_clock_1\[2\]
*127 gpio_clock_1\[3\]
*128 gpio_clock_1\[4\]
*129 gpio_clock_1\[5\]
*130 gpio_clock_1\[6\]
*131 gpio_clock_1\[7\]
*132 gpio_clock_1\[8\]
*133 gpio_clock_1\[9\]
*134 gpio_clock_1_shifted\[0\]
*135 gpio_clock_2\[10\]
*136 gpio_clock_2\[11\]
*137 gpio_clock_2\[12\]
*138 gpio_clock_2\[13\]
*139 gpio_clock_2\[14\]
*140 gpio_clock_2\[15\]
*141 gpio_clock_2\[16\]
*142 gpio_clock_2\[17\]
*143 gpio_clock_2\[18\]
*144 gpio_clock_2\[1\]
*145 gpio_clock_2\[2\]
*146 gpio_clock_2\[3\]
*147 gpio_clock_2\[4\]
*148 gpio_clock_2\[5\]
*149 gpio_clock_2\[6\]
*150 gpio_clock_2\[7\]
*151 gpio_clock_2\[8\]
*152 gpio_clock_2\[9\]
*153 gpio_defaults\[0\]
*154 gpio_defaults\[100\]
*155 gpio_defaults\[101\]
*156 gpio_defaults\[102\]
*157 gpio_defaults\[103\]
*158 gpio_defaults\[104\]
*159 gpio_defaults\[105\]
*160 gpio_defaults\[106\]
*161 gpio_defaults\[107\]
*162 gpio_defaults\[108\]
*163 gpio_defaults\[109\]
*164 gpio_defaults\[10\]
*165 gpio_defaults\[110\]
*166 gpio_defaults\[111\]
*167 gpio_defaults\[112\]
*168 gpio_defaults\[113\]
*169 gpio_defaults\[114\]
*170 gpio_defaults\[115\]
*171 gpio_defaults\[116\]
*172 gpio_defaults\[117\]
*173 gpio_defaults\[118\]
*174 gpio_defaults\[119\]
*175 gpio_defaults\[11\]
*176 gpio_defaults\[120\]
*177 gpio_defaults\[121\]
*178 gpio_defaults\[122\]
*179 gpio_defaults\[123\]
*180 gpio_defaults\[124\]
*181 gpio_defaults\[125\]
*182 gpio_defaults\[126\]
*183 gpio_defaults\[127\]
*184 gpio_defaults\[128\]
*185 gpio_defaults\[129\]
*186 gpio_defaults\[12\]
*187 gpio_defaults\[130\]
*188 gpio_defaults\[131\]
*189 gpio_defaults\[132\]
*190 gpio_defaults\[133\]
*191 gpio_defaults\[134\]
*192 gpio_defaults\[135\]
*193 gpio_defaults\[136\]
*194 gpio_defaults\[137\]
*195 gpio_defaults\[138\]
*196 gpio_defaults\[139\]
*197 gpio_defaults\[13\]
*198 gpio_defaults\[140\]
*199 gpio_defaults\[141\]
*200 gpio_defaults\[142\]
*201 gpio_defaults\[143\]
*202 gpio_defaults\[144\]
*203 gpio_defaults\[145\]
*204 gpio_defaults\[146\]
*205 gpio_defaults\[147\]
*206 gpio_defaults\[148\]
*207 gpio_defaults\[149\]
*208 gpio_defaults\[14\]
*209 gpio_defaults\[150\]
*210 gpio_defaults\[151\]
*211 gpio_defaults\[152\]
*212 gpio_defaults\[153\]
*213 gpio_defaults\[154\]
*214 gpio_defaults\[155\]
*215 gpio_defaults\[156\]
*216 gpio_defaults\[157\]
*217 gpio_defaults\[158\]
*218 gpio_defaults\[159\]
*219 gpio_defaults\[15\]
*220 gpio_defaults\[160\]
*221 gpio_defaults\[161\]
*222 gpio_defaults\[162\]
*223 gpio_defaults\[163\]
*224 gpio_defaults\[164\]
*225 gpio_defaults\[165\]
*226 gpio_defaults\[166\]
*227 gpio_defaults\[167\]
*228 gpio_defaults\[168\]
*229 gpio_defaults\[169\]
*230 gpio_defaults\[16\]
*231 gpio_defaults\[170\]
*232 gpio_defaults\[171\]
*233 gpio_defaults\[172\]
*234 gpio_defaults\[173\]
*235 gpio_defaults\[174\]
*236 gpio_defaults\[175\]
*237 gpio_defaults\[176\]
*238 gpio_defaults\[177\]
*239 gpio_defaults\[178\]
*240 gpio_defaults\[179\]
*241 gpio_defaults\[17\]
*242 gpio_defaults\[180\]
*243 gpio_defaults\[181\]
*244 gpio_defaults\[182\]
*245 gpio_defaults\[183\]
*246 gpio_defaults\[184\]
*247 gpio_defaults\[185\]
*248 gpio_defaults\[186\]
*249 gpio_defaults\[187\]
*250 gpio_defaults\[188\]
*251 gpio_defaults\[189\]
*252 gpio_defaults\[18\]
*253 gpio_defaults\[190\]
*254 gpio_defaults\[191\]
*255 gpio_defaults\[192\]
*256 gpio_defaults\[193\]
*257 gpio_defaults\[194\]
*258 gpio_defaults\[195\]
*259 gpio_defaults\[196\]
*260 gpio_defaults\[197\]
*261 gpio_defaults\[198\]
*262 gpio_defaults\[199\]
*263 gpio_defaults\[19\]
*264 gpio_defaults\[1\]
*265 gpio_defaults\[200\]
*266 gpio_defaults\[201\]
*267 gpio_defaults\[202\]
*268 gpio_defaults\[203\]
*269 gpio_defaults\[204\]
*270 gpio_defaults\[205\]
*271 gpio_defaults\[206\]
*272 gpio_defaults\[207\]
*273 gpio_defaults\[208\]
*274 gpio_defaults\[209\]
*275 gpio_defaults\[20\]
*276 gpio_defaults\[210\]
*277 gpio_defaults\[211\]
*278 gpio_defaults\[212\]
*279 gpio_defaults\[213\]
*280 gpio_defaults\[214\]
*281 gpio_defaults\[215\]
*282 gpio_defaults\[216\]
*283 gpio_defaults\[217\]
*284 gpio_defaults\[218\]
*285 gpio_defaults\[219\]
*286 gpio_defaults\[21\]
*287 gpio_defaults\[220\]
*288 gpio_defaults\[221\]
*289 gpio_defaults\[222\]
*290 gpio_defaults\[223\]
*291 gpio_defaults\[224\]
*292 gpio_defaults\[225\]
*293 gpio_defaults\[226\]
*294 gpio_defaults\[227\]
*295 gpio_defaults\[228\]
*296 gpio_defaults\[229\]
*297 gpio_defaults\[22\]
*298 gpio_defaults\[230\]
*299 gpio_defaults\[231\]
*300 gpio_defaults\[232\]
*301 gpio_defaults\[233\]
*302 gpio_defaults\[234\]
*303 gpio_defaults\[235\]
*304 gpio_defaults\[236\]
*305 gpio_defaults\[237\]
*306 gpio_defaults\[238\]
*307 gpio_defaults\[239\]
*308 gpio_defaults\[23\]
*309 gpio_defaults\[240\]
*310 gpio_defaults\[241\]
*311 gpio_defaults\[242\]
*312 gpio_defaults\[243\]
*313 gpio_defaults\[244\]
*314 gpio_defaults\[245\]
*315 gpio_defaults\[246\]
*316 gpio_defaults\[247\]
*317 gpio_defaults\[248\]
*318 gpio_defaults\[249\]
*319 gpio_defaults\[24\]
*320 gpio_defaults\[250\]
*321 gpio_defaults\[251\]
*322 gpio_defaults\[252\]
*323 gpio_defaults\[253\]
*324 gpio_defaults\[254\]
*325 gpio_defaults\[255\]
*326 gpio_defaults\[256\]
*327 gpio_defaults\[257\]
*328 gpio_defaults\[258\]
*329 gpio_defaults\[259\]
*330 gpio_defaults\[25\]
*331 gpio_defaults\[260\]
*332 gpio_defaults\[261\]
*333 gpio_defaults\[262\]
*334 gpio_defaults\[263\]
*335 gpio_defaults\[264\]
*336 gpio_defaults\[265\]
*337 gpio_defaults\[266\]
*338 gpio_defaults\[267\]
*339 gpio_defaults\[268\]
*340 gpio_defaults\[269\]
*341 gpio_defaults\[26\]
*342 gpio_defaults\[270\]
*343 gpio_defaults\[271\]
*344 gpio_defaults\[272\]
*345 gpio_defaults\[273\]
*346 gpio_defaults\[274\]
*347 gpio_defaults\[275\]
*348 gpio_defaults\[276\]
*349 gpio_defaults\[277\]
*350 gpio_defaults\[278\]
*351 gpio_defaults\[279\]
*352 gpio_defaults\[27\]
*353 gpio_defaults\[280\]
*354 gpio_defaults\[281\]
*355 gpio_defaults\[282\]
*356 gpio_defaults\[283\]
*357 gpio_defaults\[284\]
*358 gpio_defaults\[285\]
*359 gpio_defaults\[286\]
*360 gpio_defaults\[287\]
*361 gpio_defaults\[288\]
*362 gpio_defaults\[289\]
*363 gpio_defaults\[28\]
*364 gpio_defaults\[290\]
*365 gpio_defaults\[291\]
*366 gpio_defaults\[292\]
*367 gpio_defaults\[293\]
*368 gpio_defaults\[294\]
*369 gpio_defaults\[295\]
*370 gpio_defaults\[296\]
*371 gpio_defaults\[297\]
*372 gpio_defaults\[298\]
*373 gpio_defaults\[299\]
*374 gpio_defaults\[29\]
*375 gpio_defaults\[2\]
*376 gpio_defaults\[300\]
*377 gpio_defaults\[301\]
*378 gpio_defaults\[302\]
*379 gpio_defaults\[303\]
*380 gpio_defaults\[304\]
*381 gpio_defaults\[305\]
*382 gpio_defaults\[306\]
*383 gpio_defaults\[307\]
*384 gpio_defaults\[308\]
*385 gpio_defaults\[309\]
*386 gpio_defaults\[30\]
*387 gpio_defaults\[310\]
*388 gpio_defaults\[311\]
*389 gpio_defaults\[312\]
*390 gpio_defaults\[313\]
*391 gpio_defaults\[314\]
*392 gpio_defaults\[315\]
*393 gpio_defaults\[316\]
*394 gpio_defaults\[317\]
*395 gpio_defaults\[318\]
*396 gpio_defaults\[319\]
*397 gpio_defaults\[31\]
*398 gpio_defaults\[320\]
*399 gpio_defaults\[321\]
*400 gpio_defaults\[322\]
*401 gpio_defaults\[323\]
*402 gpio_defaults\[324\]
*403 gpio_defaults\[325\]
*404 gpio_defaults\[326\]
*405 gpio_defaults\[327\]
*406 gpio_defaults\[328\]
*407 gpio_defaults\[329\]
*408 gpio_defaults\[32\]
*409 gpio_defaults\[330\]
*410 gpio_defaults\[331\]
*411 gpio_defaults\[332\]
*412 gpio_defaults\[333\]
*413 gpio_defaults\[334\]
*414 gpio_defaults\[335\]
*415 gpio_defaults\[336\]
*416 gpio_defaults\[337\]
*417 gpio_defaults\[338\]
*418 gpio_defaults\[339\]
*419 gpio_defaults\[33\]
*420 gpio_defaults\[340\]
*421 gpio_defaults\[341\]
*422 gpio_defaults\[342\]
*423 gpio_defaults\[343\]
*424 gpio_defaults\[344\]
*425 gpio_defaults\[345\]
*426 gpio_defaults\[346\]
*427 gpio_defaults\[347\]
*428 gpio_defaults\[348\]
*429 gpio_defaults\[349\]
*430 gpio_defaults\[34\]
*431 gpio_defaults\[350\]
*432 gpio_defaults\[351\]
*433 gpio_defaults\[352\]
*434 gpio_defaults\[353\]
*435 gpio_defaults\[354\]
*436 gpio_defaults\[355\]
*437 gpio_defaults\[356\]
*438 gpio_defaults\[357\]
*439 gpio_defaults\[358\]
*440 gpio_defaults\[359\]
*441 gpio_defaults\[35\]
*442 gpio_defaults\[360\]
*443 gpio_defaults\[361\]
*444 gpio_defaults\[362\]
*445 gpio_defaults\[363\]
*446 gpio_defaults\[364\]
*447 gpio_defaults\[365\]
*448 gpio_defaults\[366\]
*449 gpio_defaults\[367\]
*450 gpio_defaults\[368\]
*451 gpio_defaults\[369\]
*452 gpio_defaults\[36\]
*453 gpio_defaults\[370\]
*454 gpio_defaults\[371\]
*455 gpio_defaults\[372\]
*456 gpio_defaults\[373\]
*457 gpio_defaults\[374\]
*458 gpio_defaults\[375\]
*459 gpio_defaults\[376\]
*460 gpio_defaults\[377\]
*461 gpio_defaults\[378\]
*462 gpio_defaults\[379\]
*463 gpio_defaults\[37\]
*464 gpio_defaults\[380\]
*465 gpio_defaults\[381\]
*466 gpio_defaults\[382\]
*467 gpio_defaults\[383\]
*468 gpio_defaults\[384\]
*469 gpio_defaults\[385\]
*470 gpio_defaults\[386\]
*471 gpio_defaults\[387\]
*472 gpio_defaults\[388\]
*473 gpio_defaults\[389\]
*474 gpio_defaults\[38\]
*475 gpio_defaults\[390\]
*476 gpio_defaults\[391\]
*477 gpio_defaults\[392\]
*478 gpio_defaults\[393\]
*479 gpio_defaults\[394\]
*480 gpio_defaults\[395\]
*481 gpio_defaults\[396\]
*482 gpio_defaults\[397\]
*483 gpio_defaults\[398\]
*484 gpio_defaults\[399\]
*485 gpio_defaults\[39\]
*486 gpio_defaults\[3\]
*487 gpio_defaults\[400\]
*488 gpio_defaults\[401\]
*489 gpio_defaults\[402\]
*490 gpio_defaults\[403\]
*491 gpio_defaults\[404\]
*492 gpio_defaults\[405\]
*493 gpio_defaults\[406\]
*494 gpio_defaults\[407\]
*495 gpio_defaults\[408\]
*496 gpio_defaults\[409\]
*497 gpio_defaults\[40\]
*498 gpio_defaults\[410\]
*499 gpio_defaults\[411\]
*500 gpio_defaults\[412\]
*501 gpio_defaults\[413\]
*502 gpio_defaults\[414\]
*503 gpio_defaults\[415\]
*504 gpio_defaults\[416\]
*505 gpio_defaults\[417\]
*506 gpio_defaults\[418\]
*507 gpio_defaults\[419\]
*508 gpio_defaults\[41\]
*509 gpio_defaults\[420\]
*510 gpio_defaults\[421\]
*511 gpio_defaults\[422\]
*512 gpio_defaults\[423\]
*513 gpio_defaults\[424\]
*514 gpio_defaults\[425\]
*515 gpio_defaults\[426\]
*516 gpio_defaults\[427\]
*517 gpio_defaults\[428\]
*518 gpio_defaults\[429\]
*519 gpio_defaults\[42\]
*520 gpio_defaults\[430\]
*521 gpio_defaults\[431\]
*522 gpio_defaults\[432\]
*523 gpio_defaults\[433\]
*524 gpio_defaults\[434\]
*525 gpio_defaults\[435\]
*526 gpio_defaults\[436\]
*527 gpio_defaults\[437\]
*528 gpio_defaults\[438\]
*529 gpio_defaults\[439\]
*530 gpio_defaults\[43\]
*531 gpio_defaults\[440\]
*532 gpio_defaults\[441\]
*533 gpio_defaults\[442\]
*534 gpio_defaults\[443\]
*535 gpio_defaults\[444\]
*536 gpio_defaults\[445\]
*537 gpio_defaults\[446\]
*538 gpio_defaults\[447\]
*539 gpio_defaults\[448\]
*540 gpio_defaults\[449\]
*541 gpio_defaults\[44\]
*542 gpio_defaults\[450\]
*543 gpio_defaults\[451\]
*544 gpio_defaults\[452\]
*545 gpio_defaults\[453\]
*546 gpio_defaults\[454\]
*547 gpio_defaults\[455\]
*548 gpio_defaults\[456\]
*549 gpio_defaults\[457\]
*550 gpio_defaults\[458\]
*551 gpio_defaults\[459\]
*552 gpio_defaults\[45\]
*553 gpio_defaults\[460\]
*554 gpio_defaults\[461\]
*555 gpio_defaults\[462\]
*556 gpio_defaults\[463\]
*557 gpio_defaults\[464\]
*558 gpio_defaults\[465\]
*559 gpio_defaults\[466\]
*560 gpio_defaults\[467\]
*561 gpio_defaults\[468\]
*562 gpio_defaults\[469\]
*563 gpio_defaults\[46\]
*564 gpio_defaults\[470\]
*565 gpio_defaults\[471\]
*566 gpio_defaults\[472\]
*567 gpio_defaults\[473\]
*568 gpio_defaults\[474\]
*569 gpio_defaults\[475\]
*570 gpio_defaults\[476\]
*571 gpio_defaults\[477\]
*572 gpio_defaults\[478\]
*573 gpio_defaults\[479\]
*574 gpio_defaults\[47\]
*575 gpio_defaults\[480\]
*576 gpio_defaults\[481\]
*577 gpio_defaults\[482\]
*578 gpio_defaults\[483\]
*579 gpio_defaults\[484\]
*580 gpio_defaults\[485\]
*581 gpio_defaults\[486\]
*582 gpio_defaults\[487\]
*583 gpio_defaults\[488\]
*584 gpio_defaults\[489\]
*585 gpio_defaults\[48\]
*586 gpio_defaults\[490\]
*587 gpio_defaults\[491\]
*588 gpio_defaults\[492\]
*589 gpio_defaults\[493\]
*590 gpio_defaults\[49\]
*591 gpio_defaults\[4\]
*592 gpio_defaults\[50\]
*593 gpio_defaults\[51\]
*594 gpio_defaults\[52\]
*595 gpio_defaults\[53\]
*596 gpio_defaults\[54\]
*597 gpio_defaults\[55\]
*598 gpio_defaults\[56\]
*599 gpio_defaults\[57\]
*600 gpio_defaults\[58\]
*601 gpio_defaults\[59\]
*602 gpio_defaults\[5\]
*603 gpio_defaults\[60\]
*604 gpio_defaults\[61\]
*605 gpio_defaults\[62\]
*606 gpio_defaults\[63\]
*607 gpio_defaults\[64\]
*608 gpio_defaults\[65\]
*609 gpio_defaults\[66\]
*610 gpio_defaults\[67\]
*611 gpio_defaults\[68\]
*612 gpio_defaults\[69\]
*613 gpio_defaults\[6\]
*614 gpio_defaults\[70\]
*615 gpio_defaults\[71\]
*616 gpio_defaults\[72\]
*617 gpio_defaults\[73\]
*618 gpio_defaults\[74\]
*619 gpio_defaults\[75\]
*620 gpio_defaults\[76\]
*621 gpio_defaults\[77\]
*622 gpio_defaults\[78\]
*623 gpio_defaults\[79\]
*624 gpio_defaults\[7\]
*625 gpio_defaults\[80\]
*626 gpio_defaults\[81\]
*627 gpio_defaults\[82\]
*628 gpio_defaults\[83\]
*629 gpio_defaults\[84\]
*630 gpio_defaults\[85\]
*631 gpio_defaults\[86\]
*632 gpio_defaults\[87\]
*633 gpio_defaults\[88\]
*634 gpio_defaults\[89\]
*635 gpio_defaults\[8\]
*636 gpio_defaults\[90\]
*637 gpio_defaults\[91\]
*638 gpio_defaults\[92\]
*639 gpio_defaults\[93\]
*640 gpio_defaults\[94\]
*641 gpio_defaults\[95\]
*642 gpio_defaults\[96\]
*643 gpio_defaults\[97\]
*644 gpio_defaults\[98\]
*645 gpio_defaults\[99\]
*646 gpio_defaults\[9\]
*647 gpio_in_core
*648 gpio_inenb_core
*649 gpio_load_1\[0\]
*650 gpio_load_1\[10\]
*651 gpio_load_1\[11\]
*652 gpio_load_1\[12\]
*653 gpio_load_1\[13\]
*654 gpio_load_1\[14\]
*655 gpio_load_1\[15\]
*656 gpio_load_1\[16\]
*657 gpio_load_1\[17\]
*658 gpio_load_1\[1\]
*659 gpio_load_1\[2\]
*660 gpio_load_1\[3\]
*661 gpio_load_1\[4\]
*662 gpio_load_1\[5\]
*663 gpio_load_1\[6\]
*664 gpio_load_1\[7\]
*665 gpio_load_1\[8\]
*666 gpio_load_1\[9\]
*667 gpio_load_1_shifted\[0\]
*668 gpio_load_2\[10\]
*669 gpio_load_2\[11\]
*670 gpio_load_2\[12\]
*671 gpio_load_2\[13\]
*672 gpio_load_2\[14\]
*673 gpio_load_2\[15\]
*674 gpio_load_2\[16\]
*675 gpio_load_2\[17\]
*676 gpio_load_2\[18\]
*677 gpio_load_2\[1\]
*678 gpio_load_2\[2\]
*679 gpio_load_2\[3\]
*680 gpio_load_2\[4\]
*681 gpio_load_2\[5\]
*682 gpio_load_2\[6\]
*683 gpio_load_2\[7\]
*684 gpio_load_2\[8\]
*685 gpio_load_2\[9\]
*686 gpio_mode0_core
*687 gpio_mode1_core
*688 gpio_out_core
*689 gpio_outenb_core
*690 gpio_resetn_1\[0\]
*691 gpio_resetn_1\[10\]
*692 gpio_resetn_1\[11\]
*693 gpio_resetn_1\[12\]
*694 gpio_resetn_1\[13\]
*695 gpio_resetn_1\[14\]
*696 gpio_resetn_1\[15\]
*697 gpio_resetn_1\[16\]
*698 gpio_resetn_1\[17\]
*699 gpio_resetn_1\[1\]
*700 gpio_resetn_1\[2\]
*701 gpio_resetn_1\[3\]
*702 gpio_resetn_1\[4\]
*703 gpio_resetn_1\[5\]
*704 gpio_resetn_1\[6\]
*705 gpio_resetn_1\[7\]
*706 gpio_resetn_1\[8\]
*707 gpio_resetn_1\[9\]
*708 gpio_resetn_1_shifted\[0\]
*709 gpio_resetn_2\[10\]
*710 gpio_resetn_2\[11\]
*711 gpio_resetn_2\[12\]
*712 gpio_resetn_2\[13\]
*713 gpio_resetn_2\[14\]
*714 gpio_resetn_2\[15\]
*715 gpio_resetn_2\[16\]
*716 gpio_resetn_2\[17\]
*717 gpio_resetn_2\[18\]
*718 gpio_resetn_2\[1\]
*719 gpio_resetn_2\[2\]
*720 gpio_resetn_2\[3\]
*721 gpio_resetn_2\[4\]
*722 gpio_resetn_2\[5\]
*723 gpio_resetn_2\[6\]
*724 gpio_resetn_2\[7\]
*725 gpio_resetn_2\[8\]
*726 gpio_resetn_2\[9\]
*727 gpio_serial_link_1\[0\]
*728 gpio_serial_link_1\[10\]
*729 gpio_serial_link_1\[11\]
*730 gpio_serial_link_1\[12\]
*731 gpio_serial_link_1\[13\]
*732 gpio_serial_link_1\[14\]
*733 gpio_serial_link_1\[15\]
*734 gpio_serial_link_1\[16\]
*735 gpio_serial_link_1\[17\]
*736 gpio_serial_link_1\[1\]
*737 gpio_serial_link_1\[2\]
*738 gpio_serial_link_1\[3\]
*739 gpio_serial_link_1\[4\]
*740 gpio_serial_link_1\[5\]
*741 gpio_serial_link_1\[6\]
*742 gpio_serial_link_1\[7\]
*743 gpio_serial_link_1\[8\]
*744 gpio_serial_link_1\[9\]
*745 gpio_serial_link_1_shifted\[0\]
*746 gpio_serial_link_2\[10\]
*747 gpio_serial_link_2\[11\]
*748 gpio_serial_link_2\[12\]
*749 gpio_serial_link_2\[13\]
*750 gpio_serial_link_2\[14\]
*751 gpio_serial_link_2\[15\]
*752 gpio_serial_link_2\[16\]
*753 gpio_serial_link_2\[17\]
*754 gpio_serial_link_2\[18\]
*755 gpio_serial_link_2\[1\]
*756 gpio_serial_link_2\[2\]
*757 gpio_serial_link_2\[3\]
*758 gpio_serial_link_2\[4\]
*759 gpio_serial_link_2\[5\]
*760 gpio_serial_link_2\[6\]
*761 gpio_serial_link_2\[7\]
*762 gpio_serial_link_2\[8\]
*763 gpio_serial_link_2\[9\]
*764 gpio_serial_link_2_shifted\[18\]
*765 hk_ack_i
*766 hk_cyc_o
*767 hk_dat_i\[0\]
*768 hk_dat_i\[10\]
*769 hk_dat_i\[11\]
*770 hk_dat_i\[12\]
*771 hk_dat_i\[13\]
*772 hk_dat_i\[14\]
*773 hk_dat_i\[15\]
*774 hk_dat_i\[16\]
*775 hk_dat_i\[17\]
*776 hk_dat_i\[18\]
*777 hk_dat_i\[19\]
*778 hk_dat_i\[1\]
*779 hk_dat_i\[20\]
*780 hk_dat_i\[21\]
*781 hk_dat_i\[22\]
*782 hk_dat_i\[23\]
*783 hk_dat_i\[24\]
*784 hk_dat_i\[25\]
*785 hk_dat_i\[26\]
*786 hk_dat_i\[27\]
*787 hk_dat_i\[28\]
*788 hk_dat_i\[29\]
*789 hk_dat_i\[2\]
*790 hk_dat_i\[30\]
*791 hk_dat_i\[31\]
*792 hk_dat_i\[3\]
*793 hk_dat_i\[4\]
*794 hk_dat_i\[5\]
*795 hk_dat_i\[6\]
*796 hk_dat_i\[7\]
*797 hk_dat_i\[8\]
*798 hk_dat_i\[9\]
*799 hk_stb_o
*800 irq_spi\[0\]
*801 irq_spi\[1\]
*802 irq_spi\[2\]
*803 la_data_in_mprj\[0\]
*804 la_data_in_mprj\[100\]
*805 la_data_in_mprj\[101\]
*806 la_data_in_mprj\[102\]
*807 la_data_in_mprj\[103\]
*808 la_data_in_mprj\[104\]
*809 la_data_in_mprj\[105\]
*810 la_data_in_mprj\[106\]
*811 la_data_in_mprj\[107\]
*812 la_data_in_mprj\[108\]
*813 la_data_in_mprj\[109\]
*814 la_data_in_mprj\[10\]
*815 la_data_in_mprj\[110\]
*816 la_data_in_mprj\[111\]
*817 la_data_in_mprj\[112\]
*818 la_data_in_mprj\[113\]
*819 la_data_in_mprj\[114\]
*820 la_data_in_mprj\[115\]
*821 la_data_in_mprj\[116\]
*822 la_data_in_mprj\[117\]
*823 la_data_in_mprj\[118\]
*824 la_data_in_mprj\[119\]
*825 la_data_in_mprj\[11\]
*826 la_data_in_mprj\[120\]
*827 la_data_in_mprj\[121\]
*828 la_data_in_mprj\[122\]
*829 la_data_in_mprj\[123\]
*830 la_data_in_mprj\[124\]
*831 la_data_in_mprj\[125\]
*832 la_data_in_mprj\[126\]
*833 la_data_in_mprj\[127\]
*834 la_data_in_mprj\[12\]
*835 la_data_in_mprj\[13\]
*836 la_data_in_mprj\[14\]
*837 la_data_in_mprj\[15\]
*838 la_data_in_mprj\[16\]
*839 la_data_in_mprj\[17\]
*840 la_data_in_mprj\[18\]
*841 la_data_in_mprj\[19\]
*842 la_data_in_mprj\[1\]
*843 la_data_in_mprj\[20\]
*844 la_data_in_mprj\[21\]
*845 la_data_in_mprj\[22\]
*846 la_data_in_mprj\[23\]
*847 la_data_in_mprj\[24\]
*848 la_data_in_mprj\[25\]
*849 la_data_in_mprj\[26\]
*850 la_data_in_mprj\[27\]
*851 la_data_in_mprj\[28\]
*852 la_data_in_mprj\[29\]
*853 la_data_in_mprj\[2\]
*854 la_data_in_mprj\[30\]
*855 la_data_in_mprj\[31\]
*856 la_data_in_mprj\[32\]
*857 la_data_in_mprj\[33\]
*858 la_data_in_mprj\[34\]
*859 la_data_in_mprj\[35\]
*860 la_data_in_mprj\[36\]
*861 la_data_in_mprj\[37\]
*862 la_data_in_mprj\[38\]
*863 la_data_in_mprj\[39\]
*864 la_data_in_mprj\[3\]
*865 la_data_in_mprj\[40\]
*866 la_data_in_mprj\[41\]
*867 la_data_in_mprj\[42\]
*868 la_data_in_mprj\[43\]
*869 la_data_in_mprj\[44\]
*870 la_data_in_mprj\[45\]
*871 la_data_in_mprj\[46\]
*872 la_data_in_mprj\[47\]
*873 la_data_in_mprj\[48\]
*874 la_data_in_mprj\[49\]
*875 la_data_in_mprj\[4\]
*876 la_data_in_mprj\[50\]
*877 la_data_in_mprj\[51\]
*878 la_data_in_mprj\[52\]
*879 la_data_in_mprj\[53\]
*880 la_data_in_mprj\[54\]
*881 la_data_in_mprj\[55\]
*882 la_data_in_mprj\[56\]
*883 la_data_in_mprj\[57\]
*884 la_data_in_mprj\[58\]
*885 la_data_in_mprj\[59\]
*886 la_data_in_mprj\[5\]
*887 la_data_in_mprj\[60\]
*888 la_data_in_mprj\[61\]
*889 la_data_in_mprj\[62\]
*890 la_data_in_mprj\[63\]
*891 la_data_in_mprj\[64\]
*892 la_data_in_mprj\[65\]
*893 la_data_in_mprj\[66\]
*894 la_data_in_mprj\[67\]
*895 la_data_in_mprj\[68\]
*896 la_data_in_mprj\[69\]
*897 la_data_in_mprj\[6\]
*898 la_data_in_mprj\[70\]
*899 la_data_in_mprj\[71\]
*900 la_data_in_mprj\[72\]
*901 la_data_in_mprj\[73\]
*902 la_data_in_mprj\[74\]
*903 la_data_in_mprj\[75\]
*904 la_data_in_mprj\[76\]
*905 la_data_in_mprj\[77\]
*906 la_data_in_mprj\[78\]
*907 la_data_in_mprj\[79\]
*908 la_data_in_mprj\[7\]
*909 la_data_in_mprj\[80\]
*910 la_data_in_mprj\[81\]
*911 la_data_in_mprj\[82\]
*912 la_data_in_mprj\[83\]
*913 la_data_in_mprj\[84\]
*914 la_data_in_mprj\[85\]
*915 la_data_in_mprj\[86\]
*916 la_data_in_mprj\[87\]
*917 la_data_in_mprj\[88\]
*918 la_data_in_mprj\[89\]
*919 la_data_in_mprj\[8\]
*920 la_data_in_mprj\[90\]
*921 la_data_in_mprj\[91\]
*922 la_data_in_mprj\[92\]
*923 la_data_in_mprj\[93\]
*924 la_data_in_mprj\[94\]
*925 la_data_in_mprj\[95\]
*926 la_data_in_mprj\[96\]
*927 la_data_in_mprj\[97\]
*928 la_data_in_mprj\[98\]
*929 la_data_in_mprj\[99\]
*930 la_data_in_mprj\[9\]
*931 la_data_in_user\[0\]
*932 la_data_in_user\[100\]
*933 la_data_in_user\[101\]
*934 la_data_in_user\[102\]
*935 la_data_in_user\[103\]
*936 la_data_in_user\[104\]
*937 la_data_in_user\[105\]
*938 la_data_in_user\[106\]
*939 la_data_in_user\[107\]
*940 la_data_in_user\[108\]
*941 la_data_in_user\[109\]
*942 la_data_in_user\[10\]
*943 la_data_in_user\[110\]
*944 la_data_in_user\[111\]
*945 la_data_in_user\[112\]
*946 la_data_in_user\[113\]
*947 la_data_in_user\[114\]
*948 la_data_in_user\[115\]
*949 la_data_in_user\[116\]
*950 la_data_in_user\[117\]
*951 la_data_in_user\[118\]
*952 la_data_in_user\[119\]
*953 la_data_in_user\[11\]
*954 la_data_in_user\[120\]
*955 la_data_in_user\[121\]
*956 la_data_in_user\[122\]
*957 la_data_in_user\[123\]
*958 la_data_in_user\[124\]
*959 la_data_in_user\[125\]
*960 la_data_in_user\[126\]
*961 la_data_in_user\[127\]
*962 la_data_in_user\[12\]
*963 la_data_in_user\[13\]
*964 la_data_in_user\[14\]
*965 la_data_in_user\[15\]
*966 la_data_in_user\[16\]
*967 la_data_in_user\[17\]
*968 la_data_in_user\[18\]
*969 la_data_in_user\[19\]
*970 la_data_in_user\[1\]
*971 la_data_in_user\[20\]
*972 la_data_in_user\[21\]
*973 la_data_in_user\[22\]
*974 la_data_in_user\[23\]
*975 la_data_in_user\[24\]
*976 la_data_in_user\[25\]
*977 la_data_in_user\[26\]
*978 la_data_in_user\[27\]
*979 la_data_in_user\[28\]
*980 la_data_in_user\[29\]
*981 la_data_in_user\[2\]
*982 la_data_in_user\[30\]
*983 la_data_in_user\[31\]
*984 la_data_in_user\[32\]
*985 la_data_in_user\[33\]
*986 la_data_in_user\[34\]
*987 la_data_in_user\[35\]
*988 la_data_in_user\[36\]
*989 la_data_in_user\[37\]
*990 la_data_in_user\[38\]
*991 la_data_in_user\[39\]
*992 la_data_in_user\[3\]
*993 la_data_in_user\[40\]
*994 la_data_in_user\[41\]
*995 la_data_in_user\[42\]
*996 la_data_in_user\[43\]
*997 la_data_in_user\[44\]
*998 la_data_in_user\[45\]
*999 la_data_in_user\[46\]
*1000 la_data_in_user\[47\]
*1001 la_data_in_user\[48\]
*1002 la_data_in_user\[49\]
*1003 la_data_in_user\[4\]
*1004 la_data_in_user\[50\]
*1005 la_data_in_user\[51\]
*1006 la_data_in_user\[52\]
*1007 la_data_in_user\[53\]
*1008 la_data_in_user\[54\]
*1009 la_data_in_user\[55\]
*1010 la_data_in_user\[56\]
*1011 la_data_in_user\[57\]
*1012 la_data_in_user\[58\]
*1013 la_data_in_user\[59\]
*1014 la_data_in_user\[5\]
*1015 la_data_in_user\[60\]
*1016 la_data_in_user\[61\]
*1017 la_data_in_user\[62\]
*1018 la_data_in_user\[63\]
*1019 la_data_in_user\[64\]
*1020 la_data_in_user\[65\]
*1021 la_data_in_user\[66\]
*1022 la_data_in_user\[67\]
*1023 la_data_in_user\[68\]
*1024 la_data_in_user\[69\]
*1025 la_data_in_user\[6\]
*1026 la_data_in_user\[70\]
*1027 la_data_in_user\[71\]
*1028 la_data_in_user\[72\]
*1029 la_data_in_user\[73\]
*1030 la_data_in_user\[74\]
*1031 la_data_in_user\[75\]
*1032 la_data_in_user\[76\]
*1033 la_data_in_user\[77\]
*1034 la_data_in_user\[78\]
*1035 la_data_in_user\[79\]
*1036 la_data_in_user\[7\]
*1037 la_data_in_user\[80\]
*1038 la_data_in_user\[81\]
*1039 la_data_in_user\[82\]
*1040 la_data_in_user\[83\]
*1041 la_data_in_user\[84\]
*1042 la_data_in_user\[85\]
*1043 la_data_in_user\[86\]
*1044 la_data_in_user\[87\]
*1045 la_data_in_user\[88\]
*1046 la_data_in_user\[89\]
*1047 la_data_in_user\[8\]
*1048 la_data_in_user\[90\]
*1049 la_data_in_user\[91\]
*1050 la_data_in_user\[92\]
*1051 la_data_in_user\[93\]
*1052 la_data_in_user\[94\]
*1053 la_data_in_user\[95\]
*1054 la_data_in_user\[96\]
*1055 la_data_in_user\[97\]
*1056 la_data_in_user\[98\]
*1057 la_data_in_user\[99\]
*1058 la_data_in_user\[9\]
*1059 la_data_out_mprj\[0\]
*1060 la_data_out_mprj\[100\]
*1061 la_data_out_mprj\[101\]
*1062 la_data_out_mprj\[102\]
*1063 la_data_out_mprj\[103\]
*1064 la_data_out_mprj\[104\]
*1065 la_data_out_mprj\[105\]
*1066 la_data_out_mprj\[106\]
*1067 la_data_out_mprj\[107\]
*1068 la_data_out_mprj\[108\]
*1069 la_data_out_mprj\[109\]
*1070 la_data_out_mprj\[10\]
*1071 la_data_out_mprj\[110\]
*1072 la_data_out_mprj\[111\]
*1073 la_data_out_mprj\[112\]
*1074 la_data_out_mprj\[113\]
*1075 la_data_out_mprj\[114\]
*1076 la_data_out_mprj\[115\]
*1077 la_data_out_mprj\[116\]
*1078 la_data_out_mprj\[117\]
*1079 la_data_out_mprj\[118\]
*1080 la_data_out_mprj\[119\]
*1081 la_data_out_mprj\[11\]
*1082 la_data_out_mprj\[120\]
*1083 la_data_out_mprj\[121\]
*1084 la_data_out_mprj\[122\]
*1085 la_data_out_mprj\[123\]
*1086 la_data_out_mprj\[124\]
*1087 la_data_out_mprj\[125\]
*1088 la_data_out_mprj\[126\]
*1089 la_data_out_mprj\[127\]
*1090 la_data_out_mprj\[12\]
*1091 la_data_out_mprj\[13\]
*1092 la_data_out_mprj\[14\]
*1093 la_data_out_mprj\[15\]
*1094 la_data_out_mprj\[16\]
*1095 la_data_out_mprj\[17\]
*1096 la_data_out_mprj\[18\]
*1097 la_data_out_mprj\[19\]
*1098 la_data_out_mprj\[1\]
*1099 la_data_out_mprj\[20\]
*1100 la_data_out_mprj\[21\]
*1101 la_data_out_mprj\[22\]
*1102 la_data_out_mprj\[23\]
*1103 la_data_out_mprj\[24\]
*1104 la_data_out_mprj\[25\]
*1105 la_data_out_mprj\[26\]
*1106 la_data_out_mprj\[27\]
*1107 la_data_out_mprj\[28\]
*1108 la_data_out_mprj\[29\]
*1109 la_data_out_mprj\[2\]
*1110 la_data_out_mprj\[30\]
*1111 la_data_out_mprj\[31\]
*1112 la_data_out_mprj\[32\]
*1113 la_data_out_mprj\[33\]
*1114 la_data_out_mprj\[34\]
*1115 la_data_out_mprj\[35\]
*1116 la_data_out_mprj\[36\]
*1117 la_data_out_mprj\[37\]
*1118 la_data_out_mprj\[38\]
*1119 la_data_out_mprj\[39\]
*1120 la_data_out_mprj\[3\]
*1121 la_data_out_mprj\[40\]
*1122 la_data_out_mprj\[41\]
*1123 la_data_out_mprj\[42\]
*1124 la_data_out_mprj\[43\]
*1125 la_data_out_mprj\[44\]
*1126 la_data_out_mprj\[45\]
*1127 la_data_out_mprj\[46\]
*1128 la_data_out_mprj\[47\]
*1129 la_data_out_mprj\[48\]
*1130 la_data_out_mprj\[49\]
*1131 la_data_out_mprj\[4\]
*1132 la_data_out_mprj\[50\]
*1133 la_data_out_mprj\[51\]
*1134 la_data_out_mprj\[52\]
*1135 la_data_out_mprj\[53\]
*1136 la_data_out_mprj\[54\]
*1137 la_data_out_mprj\[55\]
*1138 la_data_out_mprj\[56\]
*1139 la_data_out_mprj\[57\]
*1140 la_data_out_mprj\[58\]
*1141 la_data_out_mprj\[59\]
*1142 la_data_out_mprj\[5\]
*1143 la_data_out_mprj\[60\]
*1144 la_data_out_mprj\[61\]
*1145 la_data_out_mprj\[62\]
*1146 la_data_out_mprj\[63\]
*1147 la_data_out_mprj\[64\]
*1148 la_data_out_mprj\[65\]
*1149 la_data_out_mprj\[66\]
*1150 la_data_out_mprj\[67\]
*1151 la_data_out_mprj\[68\]
*1152 la_data_out_mprj\[69\]
*1153 la_data_out_mprj\[6\]
*1154 la_data_out_mprj\[70\]
*1155 la_data_out_mprj\[71\]
*1156 la_data_out_mprj\[72\]
*1157 la_data_out_mprj\[73\]
*1158 la_data_out_mprj\[74\]
*1159 la_data_out_mprj\[75\]
*1160 la_data_out_mprj\[76\]
*1161 la_data_out_mprj\[77\]
*1162 la_data_out_mprj\[78\]
*1163 la_data_out_mprj\[79\]
*1164 la_data_out_mprj\[7\]
*1165 la_data_out_mprj\[80\]
*1166 la_data_out_mprj\[81\]
*1167 la_data_out_mprj\[82\]
*1168 la_data_out_mprj\[83\]
*1169 la_data_out_mprj\[84\]
*1170 la_data_out_mprj\[85\]
*1171 la_data_out_mprj\[86\]
*1172 la_data_out_mprj\[87\]
*1173 la_data_out_mprj\[88\]
*1174 la_data_out_mprj\[89\]
*1175 la_data_out_mprj\[8\]
*1176 la_data_out_mprj\[90\]