*SPEF "ieee 1481-1999"
*DESIGN "chip_io"
*DATE "11:11:11 Fri 11 11, 1111"
*VENDOR "OpenRCX"
*PROGRAM "Parallel Extraction"
*VERSION "1.0"
*DESIGN_FLOW "NAME_SCOPE LOCAL" "PIN_CAP NONE"
*DIVIDER /
*DELIMITER :
*BUS_DELIMITER []
*T_UNIT 1 NS
*C_UNIT 1 PF
*R_UNIT 1 OHM
*L_UNIT 1 HENRY

*NAME_MAP
*1 clock
*2 clock_core
*3 por
*4 flash_clk
*5 flash_clk_core
*6 flash_clk_oeb_core
*7 flash_csb
*8 flash_csb_core
*9 flash_csb_oeb_core
*10 flash_io0
*11 flash_io0_di_core
*12 flash_io0_do_core
*13 flash_io0_ieb_core
*14 flash_io0_oeb_core
*15 flash_io1
*16 flash_io1_di_core
*17 flash_io1_do_core
*18 flash_io1_ieb_core
*19 flash_io1_oeb_core
*20 gpio
*21 gpio_in_core
*22 gpio_inenb_core
*23 gpio_mode0_core
*24 gpio_mode1_core
*25 gpio_out_core
*26 gpio_outenb_core
*27 vccd_pad
*28 vdda_pad
*29 vddio_pad
*30 vddio_pad2
*31 vssa_pad
*32 vssd_pad
*33 vssio_pad
*34 vssio_pad2
*35 mprj_io[0]
*36 mprj_io_analog_en[0]
*37 mprj_io_analog_pol[0]
*38 mprj_io_analog_sel[0]
*39 mprj_io_dm[0]
*40 mprj_io_dm[1]
*41 mprj_io_dm[2]
*42 mprj_io_holdover[0]
*43 mprj_io_ib_mode_sel[0]
*44 mprj_io_inp_dis[0]
*45 mprj_io_oeb[0]
*46 mprj_io_out[0]
*47 mprj_io_slow_sel[0]
*48 mprj_io_vtrip_sel[0]
*49 mprj_io_in[0]
*50 mprj_analog_io[3]
*51 mprj_io[10]
*52 mprj_io_analog_en[10]
*53 mprj_io_analog_pol[10]
*54 mprj_io_analog_sel[10]
*55 mprj_io_dm[30]
*56 mprj_io_dm[31]
*57 mprj_io_dm[32]
*58 mprj_io_holdover[10]
*59 mprj_io_ib_mode_sel[10]
*60 mprj_io_inp_dis[10]
*61 mprj_io_oeb[10]
*62 mprj_io_out[10]
*63 mprj_io_slow_sel[10]
*64 mprj_io_vtrip_sel[10]
*65 mprj_io_in[10]
*66 mprj_analog_io[4]
*67 mprj_io[11]
*68 mprj_io_analog_en[11]
*69 mprj_io_analog_pol[11]
*70 mprj_io_analog_sel[11]
*71 mprj_io_dm[33]
*72 mprj_io_dm[34]
*73 mprj_io_dm[35]
*74 mprj_io_holdover[11]
*75 mprj_io_ib_mode_sel[11]
*76 mprj_io_inp_dis[11]
*77 mprj_io_oeb[11]
*78 mprj_io_out[11]
*79 mprj_io_slow_sel[11]
*80 mprj_io_vtrip_sel[11]
*81 mprj_io_in[11]
*82 mprj_analog_io[5]
*83 mprj_io[12]
*84 mprj_io_analog_en[12]
*85 mprj_io_analog_pol[12]
*86 mprj_io_analog_sel[12]
*87 mprj_io_dm[36]
*88 mprj_io_dm[37]
*89 mprj_io_dm[38]
*90 mprj_io_holdover[12]
*91 mprj_io_ib_mode_sel[12]
*92 mprj_io_inp_dis[12]
*93 mprj_io_oeb[12]
*94 mprj_io_out[12]
*95 mprj_io_slow_sel[12]
*96 mprj_io_vtrip_sel[12]
*97 mprj_io_in[12]
*98 mprj_analog_io[6]
*99 mprj_io[13]
*100 mprj_io_analog_en[13]
*101 mprj_io_analog_pol[13]
*102 mprj_io_analog_sel[13]
*103 mprj_io_dm[39]
*104 mprj_io_dm[40]
*105 mprj_io_dm[41]
*106 mprj_io_holdover[13]
*107 mprj_io_ib_mode_sel[13]
*108 mprj_io_inp_dis[13]
*109 mprj_io_oeb[13]
*110 mprj_io_out[13]
*111 mprj_io_slow_sel[13]
*112 mprj_io_vtrip_sel[13]
*113 mprj_io_in[13]
*114 mprj_analog_io[7]
*115 mprj_io[14]
*116 mprj_io_analog_en[14]
*117 mprj_io_analog_pol[14]
*118 mprj_io_analog_sel[14]
*119 mprj_io_dm[42]
*120 mprj_io_dm[43]
*121 mprj_io_dm[44]
*122 mprj_io_holdover[14]
*123 mprj_io_ib_mode_sel[14]
*124 mprj_io_inp_dis[14]
*125 mprj_io_oeb[14]
*126 mprj_io_out[14]
*127 mprj_io_slow_sel[14]
*128 mprj_io_vtrip_sel[14]
*129 mprj_io_in[14]
*130 mprj_analog_io[8]
*131 mprj_io[15]
*132 mprj_io_analog_en[15]
*133 mprj_io_analog_pol[15]
*134 mprj_io_analog_sel[15]
*135 mprj_io_dm[45]
*136 mprj_io_dm[46]
*137 mprj_io_dm[47]
*138 mprj_io_holdover[15]
*139 mprj_io_ib_mode_sel[15]
*140 mprj_io_inp_dis[15]
*141 mprj_io_oeb[15]
*142 mprj_io_out[15]
*143 mprj_io_slow_sel[15]
*144 mprj_io_vtrip_sel[15]
*145 mprj_io_in[15]
*146 mprj_analog_io[9]
*147 mprj_io[16]
*148 mprj_io_analog_en[16]
*149 mprj_io_analog_pol[16]
*150 mprj_io_analog_sel[16]
*151 mprj_io_dm[48]
*152 mprj_io_dm[49]
*153 mprj_io_dm[50]
*154 mprj_io_holdover[16]
*155 mprj_io_ib_mode_sel[16]
*156 mprj_io_inp_dis[16]
*157 mprj_io_oeb[16]
*158 mprj_io_out[16]
*159 mprj_io_slow_sel[16]
*160 mprj_io_vtrip_sel[16]
*161 mprj_io_in[16]
*162 mprj_analog_io[10]
*163 mprj_io[17]
*164 mprj_io_analog_en[17]
*165 mprj_io_analog_pol[17]
*166 mprj_io_analog_sel[17]
*167 mprj_io_dm[51]
*168 mprj_io_dm[52]
*169 mprj_io_dm[53]
*170 mprj_io_holdover[17]
*171 mprj_io_ib_mode_sel[17]
*172 mprj_io_inp_dis[17]
*173 mprj_io_oeb[17]
*174 mprj_io_out[17]
*175 mprj_io_slow_sel[17]
*176 mprj_io_vtrip_sel[17]
*177 mprj_io_in[17]
*178 mprj_analog_io[11]
*179 mprj_io[18]
*180 mprj_io_analog_en[18]
*181 mprj_io_analog_pol[18]
*182 mprj_io_analog_sel[18]
*183 mprj_io_dm[54]
*184 mprj_io_dm[55]
*185 mprj_io_dm[56]
*186 mprj_io_holdover[18]
*187 mprj_io_ib_mode_sel[18]
*188 mprj_io_inp_dis[18]
*189 mprj_io_oeb[18]
*190 mprj_io_out[18]
*191 mprj_io_slow_sel[18]
*192 mprj_io_vtrip_sel[18]
*193 mprj_io_in[18]
*194 mprj_io[1]
*195 mprj_io_analog_en[1]
*196 mprj_io_analog_pol[1]
*197 mprj_io_analog_sel[1]
*198 mprj_io_dm[3]
*199 mprj_io_dm[4]
*200 mprj_io_dm[5]
*201 mprj_io_holdover[1]
*202 mprj_io_ib_mode_sel[1]
*203 mprj_io_inp_dis[1]
*204 mprj_io_oeb[1]
*205 mprj_io_out[1]
*206 mprj_io_slow_sel[1]
*207 mprj_io_vtrip_sel[1]
*208 mprj_io_in[1]
*209 mprj_io[2]
*210 mprj_io_analog_en[2]
*211 mprj_io_analog_pol[2]
*212 mprj_io_analog_sel[2]
*213 mprj_io_dm[6]
*214 mprj_io_dm[7]
*215 mprj_io_dm[8]
*216 mprj_io_holdover[2]
*217 mprj_io_ib_mode_sel[2]
*218 mprj_io_inp_dis[2]
*219 mprj_io_oeb[2]
*220 mprj_io_out[2]
*221 mprj_io_slow_sel[2]
*222 mprj_io_vtrip_sel[2]
*223 mprj_io_in[2]
*224 mprj_io[3]
*225 mprj_io_analog_en[3]
*226 mprj_io_analog_pol[3]
*227 mprj_io_analog_sel[3]
*228 mprj_io_dm[10]
*229 mprj_io_dm[11]
*230 mprj_io_dm[9]
*231 mprj_io_holdover[3]
*232 mprj_io_ib_mode_sel[3]
*233 mprj_io_inp_dis[3]
*234 mprj_io_oeb[3]
*235 mprj_io_out[3]
*236 mprj_io_slow_sel[3]
*237 mprj_io_vtrip_sel[3]
*238 mprj_io_in[3]
*239 mprj_io[4]
*240 mprj_io_analog_en[4]
*241 mprj_io_analog_pol[4]
*242 mprj_io_analog_sel[4]
*243 mprj_io_dm[12]
*244 mprj_io_dm[13]
*245 mprj_io_dm[14]
*246 mprj_io_holdover[4]
*247 mprj_io_ib_mode_sel[4]
*248 mprj_io_inp_dis[4]
*249 mprj_io_oeb[4]
*250 mprj_io_out[4]
*251 mprj_io_slow_sel[4]
*252 mprj_io_vtrip_sel[4]
*253 mprj_io_in[4]
*254 mprj_io[5]
*255 mprj_io_analog_en[5]
*256 mprj_io_analog_pol[5]
*257 mprj_io_analog_sel[5]
*258 mprj_io_dm[15]
*259 mprj_io_dm[16]
*260 mprj_io_dm[17]
*261 mprj_io_holdover[5]
*262 mprj_io_ib_mode_sel[5]
*263 mprj_io_inp_dis[5]
*264 mprj_io_oeb[5]
*265 mprj_io_out[5]
*266 mprj_io_slow_sel[5]
*267 mprj_io_vtrip_sel[5]
*268 mprj_io_in[5]
*269 mprj_io[6]
*270 mprj_io_analog_en[6]
*271 mprj_io_analog_pol[6]
*272 mprj_io_analog_sel[6]
*273 mprj_io_dm[18]
*274 mprj_io_dm[19]
*275 mprj_io_dm[20]
*276 mprj_io_holdover[6]
*277 mprj_io_ib_mode_sel[6]
*278 mprj_io_inp_dis[6]
*279 mprj_io_oeb[6]
*280 mprj_io_out[6]
*281 mprj_io_slow_sel[6]
*282 mprj_io_vtrip_sel[6]
*283 mprj_io_in[6]
*284 mprj_analog_io[0]
*285 mprj_io[7]
*286 mprj_io_analog_en[7]
*287 mprj_io_analog_pol[7]
*288 mprj_io_analog_sel[7]
*289 mprj_io_dm[21]
*290 mprj_io_dm[22]
*291 mprj_io_dm[23]
*292 mprj_io_holdover[7]
*293 mprj_io_ib_mode_sel[7]
*294 mprj_io_inp_dis[7]
*295 mprj_io_oeb[7]
*296 mprj_io_out[7]
*297 mprj_io_slow_sel[7]
*298 mprj_io_vtrip_sel[7]
*299 mprj_io_in[7]
*300 mprj_analog_io[1]
*301 mprj_io[8]
*302 mprj_io_analog_en[8]
*303 mprj_io_analog_pol[8]
*304 mprj_io_analog_sel[8]
*305 mprj_io_dm[24]
*306 mprj_io_dm[25]
*307 mprj_io_dm[26]
*308 mprj_io_holdover[8]
*309 mprj_io_ib_mode_sel[8]
*310 mprj_io_inp_dis[8]
*311 mprj_io_oeb[8]
*312 mprj_io_out[8]
*313 mprj_io_slow_sel[8]
*314 mprj_io_vtrip_sel[8]
*315 mprj_io_in[8]
*316 mprj_analog_io[2]
*317 mprj_io[9]
*318 mprj_io_analog_en[9]
*319 mprj_io_analog_pol[9]
*320 mprj_io_analog_sel[9]
*321 mprj_io_dm[27]
*322 mprj_io_dm[28]
*323 mprj_io_dm[29]
*324 mprj_io_holdover[9]
*325 mprj_io_ib_mode_sel[9]
*326 mprj_io_inp_dis[9]
*327 mprj_io_oeb[9]
*328 mprj_io_out[9]
*329 mprj_io_slow_sel[9]
*330 mprj_io_vtrip_sel[9]
*331 mprj_io_in[9]
*332 mprj_analog_io[12]
*333 mprj_io[19]
*334 mprj_io_analog_en[19]
*335 mprj_io_analog_pol[19]
*336 mprj_io_analog_sel[19]
*337 mprj_io_dm[57]
*338 mprj_io_dm[58]
*339 mprj_io_dm[59]
*340 mprj_io_holdover[19]
*341 mprj_io_ib_mode_sel[19]
*342 mprj_io_inp_dis[19]
*343 mprj_io_oeb[19]
*344 mprj_io_out[19]
*345 mprj_io_slow_sel[19]
*346 mprj_io_vtrip_sel[19]
*347 mprj_io_in[19]
*348 mprj_analog_io[22]
*349 mprj_io[29]
*350 mprj_io_analog_en[29]
*351 mprj_io_analog_pol[29]
*352 mprj_io_analog_sel[29]
*353 mprj_io_dm[87]
*354 mprj_io_dm[88]
*355 mprj_io_dm[89]
*356 mprj_io_holdover[29]
*357 mprj_io_ib_mode_sel[29]
*358 mprj_io_inp_dis[29]
*359 mprj_io_oeb[29]
*360 mprj_io_out[29]
*361 mprj_io_slow_sel[29]
*362 mprj_io_vtrip_sel[29]
*363 mprj_io_in[29]
*364 mprj_analog_io[23]
*365 mprj_io[30]
*366 mprj_io_analog_en[30]
*367 mprj_io_analog_pol[30]
*368 mprj_io_analog_sel[30]
*369 mprj_io_dm[90]
*370 mprj_io_dm[91]
*371 mprj_io_dm[92]
*372 mprj_io_holdover[30]
*373 mprj_io_ib_mode_sel[30]
*374 mprj_io_inp_dis[30]
*375 mprj_io_oeb[30]
*376 mprj_io_out[30]
*377 mprj_io_slow_sel[30]
*378 mprj_io_vtrip_sel[30]
*379 mprj_io_in[30]
*380 mprj_analog_io[24]
*381 mprj_io[31]
*382 mprj_io_analog_en[31]
*383 mprj_io_analog_pol[31]
*384 mprj_io_analog_sel[31]
*385 mprj_io_dm[93]
*386 mprj_io_dm[94]
*387 mprj_io_dm[95]
*388 mprj_io_holdover[31]
*389 mprj_io_ib_mode_sel[31]
*390 mprj_io_inp_dis[31]
*391 mprj_io_oeb[31]
*392 mprj_io_out[31]
*393 mprj_io_slow_sel[31]
*394 mprj_io_vtrip_sel[31]
*395 mprj_io_in[31]
*396 mprj_analog_io[25]
*397 mprj_io[32]
*398 mprj_io_analog_en[32]
*399 mprj_io_analog_pol[32]
*400 mprj_io_analog_sel[32]
*401 mprj_io_dm[96]
*402 mprj_io_dm[97]
*403 mprj_io_dm[98]
*404 mprj_io_holdover[32]
*405 mprj_io_ib_mode_sel[32]
*406 mprj_io_inp_dis[32]
*407 mprj_io_oeb[32]
*408 mprj_io_out[32]
*409 mprj_io_slow_sel[32]
*410 mprj_io_vtrip_sel[32]
*411 mprj_io_in[32]
*412 mprj_analog_io[26]
*413 mprj_io[33]
*414 mprj_io_analog_en[33]
*415 mprj_io_analog_pol[33]
*416 mprj_io_analog_sel[33]
*417 mprj_io_dm[100]
*418 mprj_io_dm[101]
*419 mprj_io_dm[99]
*420 mprj_io_holdover[33]
*421 mprj_io_ib_mode_sel[33]
*422 mprj_io_inp_dis[33]
*423 mprj_io_oeb[33]
*424 mprj_io_out[33]
*425 mprj_io_slow_sel[33]
*426 mprj_io_vtrip_sel[33]
*427 mprj_io_in[33]
*428 mprj_analog_io[27]
*429 mprj_io[34]
*430 mprj_io_analog_en[34]
*431 mprj_io_analog_pol[34]
*432 mprj_io_analog_sel[34]
*433 mprj_io_dm[102]
*434 mprj_io_dm[103]
*435 mprj_io_dm[104]
*436 mprj_io_holdover[34]
*437 mprj_io_ib_mode_sel[34]
*438 mprj_io_inp_dis[34]
*439 mprj_io_oeb[34]
*440 mprj_io_out[34]
*441 mprj_io_slow_sel[34]
*442 mprj_io_vtrip_sel[34]
*443 mprj_io_in[34]
*444 mprj_analog_io[28]
*445 mprj_io[35]
*446 mprj_io_analog_en[35]
*447 mprj_io_analog_pol[35]
*448 mprj_io_analog_sel[35]
*449 mprj_io_dm[105]
*450 mprj_io_dm[106]
*451 mprj_io_dm[107]
*452 mprj_io_holdover[35]
*453 mprj_io_ib_mode_sel[35]
*454 mprj_io_inp_dis[35]
*455 mprj_io_oeb[35]
*456 mprj_io_out[35]
*457 mprj_io_slow_sel[35]
*458 mprj_io_vtrip_sel[35]
*459 mprj_io_in[35]
*460 mprj_io[36]
*461 mprj_io_analog_en[36]
*462 mprj_io_analog_pol[36]
*463 mprj_io_analog_sel[36]
*464 mprj_io_dm[108]
*465 mprj_io_dm[109]
*466 mprj_io_dm[110]
*467 mprj_io_holdover[36]
*468 mprj_io_ib_mode_sel[36]
*469 mprj_io_inp_dis[36]
*470 mprj_io_oeb[36]
*471 mprj_io_out[36]
*472 mprj_io_slow_sel[36]
*473 mprj_io_vtrip_sel[36]
*474 mprj_io_in[36]
*475 mprj_io[37]
*476 mprj_io_analog_en[37]
*477 mprj_io_analog_pol[37]
*478 mprj_io_analog_sel[37]
*479 mprj_io_dm[111]
*480 mprj_io_dm[112]
*481 mprj_io_dm[113]
*482 mprj_io_holdover[37]
*483 mprj_io_ib_mode_sel[37]
*484 mprj_io_inp_dis[37]
*485 mprj_io_oeb[37]
*486 mprj_io_out[37]
*487 mprj_io_slow_sel[37]
*488 mprj_io_vtrip_sel[37]
*489 mprj_io_in[37]
*490 mprj_analog_io[13]
*491 mprj_io[20]
*492 mprj_io_analog_en[20]
*493 mprj_io_analog_pol[20]
*494 mprj_io_analog_sel[20]
*495 mprj_io_dm[60]
*496 mprj_io_dm[61]
*497 mprj_io_dm[62]
*498 mprj_io_holdover[20]
*499 mprj_io_ib_mode_sel[20]
*500 mprj_io_inp_dis[20]
*501 mprj_io_oeb[20]
*502 mprj_io_out[20]
*503 mprj_io_slow_sel[20]
*504 mprj_io_vtrip_sel[20]
*505 mprj_io_in[20]
*506 mprj_analog_io[14]
*507 mprj_io[21]
*508 mprj_io_analog_en[21]
*509 mprj_io_analog_pol[21]
*510 mprj_io_analog_sel[21]
*511 mprj_io_dm[63]
*512 mprj_io_dm[64]
*513 mprj_io_dm[65]
*514 mprj_io_holdover[21]
*515 mprj_io_ib_mode_sel[21]
*516 mprj_io_inp_dis[21]
*517 mprj_io_oeb[21]
*518 mprj_io_out[21]
*519 mprj_io_slow_sel[21]
*520 mprj_io_vtrip_sel[21]
*521 mprj_io_in[21]
*522 mprj_analog_io[15]
*523 mprj_io[22]
*524 mprj_io_analog_en[22]
*525 mprj_io_analog_pol[22]
*526 mprj_io_analog_sel[22]
*527 mprj_io_dm[66]
*528 mprj_io_dm[67]
*529 mprj_io_dm[68]
*530 mprj_io_holdover[22]
*531 mprj_io_ib_mode_sel[22]
*532 mprj_io_inp_dis[22]
*533 mprj_io_oeb[22]
*534 mprj_io_out[22]
*535 mprj_io_slow_sel[22]
*536 mprj_io_vtrip_sel[22]
*537 mprj_io_in[22]
*538 mprj_analog_io[16]
*539 mprj_io[23]
*540 mprj_io_analog_en[23]
*541 mprj_io_analog_pol[23]
*542 mprj_io_analog_sel[23]
*543 mprj_io_dm[69]
*544 mprj_io_dm[70]
*545 mprj_io_dm[71]
*546 mprj_io_holdover[23]
*547 mprj_io_ib_mode_sel[23]
*548 mprj_io_inp_dis[23]
*549 mprj_io_oeb[23]
*550 mprj_io_out[23]
*551 mprj_io_slow_sel[23]
*552 mprj_io_vtrip_sel[23]
*553 mprj_io_in[23]
*554 mprj_analog_io[17]
*555 mprj_io[24]
*556 mprj_io_analog_en[24]
*557 mprj_io_analog_pol[24]
*558 mprj_io_analog_sel[24]
*559 mprj_io_dm[72]
*560 mprj_io_dm[73]
*561 mprj_io_dm[74]
*562 mprj_io_holdover[24]
*563 mprj_io_ib_mode_sel[24]
*564 mprj_io_inp_dis[24]
*565 mprj_io_oeb[24]
*566 mprj_io_out[24]
*567 mprj_io_slow_sel[24]
*568 mprj_io_vtrip_sel[24]
*569 mprj_io_in[24]
*570 mprj_analog_io[18]
*571 mprj_io[25]
*572 mprj_io_analog_en[25]
*573 mprj_io_analog_pol[25]
*574 mprj_io_analog_sel[25]
*575 mprj_io_dm[75]
*576 mprj_io_dm[76]
*577 mprj_io_dm[77]
*578 mprj_io_holdover[25]
*579 mprj_io_ib_mode_sel[25]
*580 mprj_io_inp_dis[25]
*581 mprj_io_oeb[25]
*582 mprj_io_out[25]
*583 mprj_io_slow_sel[25]
*584 mprj_io_vtrip_sel[25]
*585 mprj_io_in[25]
*586 mprj_analog_io[19]
*587 mprj_io[26]
*588 mprj_io_analog_en[26]
*589 mprj_io_analog_pol[26]
*590 mprj_io_analog_sel[26]
*591 mprj_io_dm[78]
*592 mprj_io_dm[79]
*593 mprj_io_dm[80]
*594 mprj_io_holdover[26]
*595 mprj_io_ib_mode_sel[26]
*596 mprj_io_inp_dis[26]
*597 mprj_io_oeb[26]
*598 mprj_io_out[26]
*599 mprj_io_slow_sel[26]
*600 mprj_io_vtrip_sel[26]
*601 mprj_io_in[26]
*602 mprj_analog_io[20]
*603 mprj_io[27]
*604 mprj_io_analog_en[27]
*605 mprj_io_analog_pol[27]
*606 mprj_io_analog_sel[27]
*607 mprj_io_dm[81]
*608 mprj_io_dm[82]
*609 mprj_io_dm[83]
*610 mprj_io_holdover[27]
*611 mprj_io_ib_mode_sel[27]
*612 mprj_io_inp_dis[27]
*613 mprj_io_oeb[27]
*614 mprj_io_out[27]
*615 mprj_io_slow_sel[27]
*616 mprj_io_vtrip_sel[27]
*617 mprj_io_in[27]
*618 mprj_analog_io[21]
*619 mprj_io[28]
*620 mprj_io_analog_en[28]
*621 mprj_io_analog_pol[28]
*622 mprj_io_analog_sel[28]
*623 mprj_io_dm[84]
*624 mprj_io_dm[85]
*625 mprj_io_dm[86]
*626 mprj_io_holdover[28]
*627 mprj_io_ib_mode_sel[28]
*628 mprj_io_inp_dis[28]
*629 mprj_io_oeb[28]
*630 mprj_io_out[28]
*631 mprj_io_slow_sel[28]
*632 mprj_io_vtrip_sel[28]
*633 mprj_io_in[28]
*634 resetb
*635 vdda
*636 vssa
*637 vccd1_pad
*638 vdda1_pad
*639 vdda1_pad2
*640 vssa1_pad
*641 vssa1_pad2
*642 vdda1
*643 vssa1
*644 vssd1_pad
*645 vccd2_pad
*646 vdda2_pad
*647 vssa2_pad
*648 vccd
*649 vdda2
*650 vddio
*651 vssa2
*652 vssd2_pad
*653 vssio
*654 vssd
*655 resetb_core_h
*656 vssd2
*657 vccd2
*658 vssd1
*659 vccd1
*660 flash_clk_ieb_core
*661 flash_csb_ieb_core
*662 mgmt_corner\[0\]
*663 FILLER_170
*664 FILLER_374
*665 FILLER_171
*666 FILLER_172
*667 FILLER_174
*668 FILLER_173
*669 bus_tie_3
*670 bus_tie_2
*671 bus_tie_1
*672 FILLER_181
*673 bus_tie_6
*674 bus_tie_5
*675 bus_tie_4
*676 FILLER_182
*677 FILLER_183
*678 FILLER_185
*679 FILLER_184
*680 mgmt_vssa_hvclamp_pad
*681 FILLER_187
*682 FILLER_188
*683 FILLER_189
*684 FILLER_191
*685 FILLER_190
*686 bus_tie_7
*687 bus_tie_8
*688 bus_tie_9
*689 bus_tie_10
*690 bus_tie_11
*691 bus_tie_12
*692 FILLER_198
*693 FILLER_199
*694 FILLER_200
*695 FILLER_202
*696 FILLER_201
*697 resetb_pad
*698 FILLER_204
*699 FILLER_205
*700 FILLER_206
*701 FILLER_208
*702 FILLER_207
*703 bus_tie_13
*704 bus_tie_16
*705 bus_tie_15
*706 bus_tie_14
*707 FILLER_215
*708 FILLER_216
*709 bus_tie_18
*710 bus_tie_17
*711 FILLER_217
*712 FILLER_219
*713 FILLER_218
*714 clock_pad
*715 FILLER_221
*716 FILLER_222
*717 FILLER_223
*718 FILLER_225
*719 FILLER_224
*720 bus_tie_19
*721 bus_tie_23
*722 bus_tie_22
*723 bus_tie_21
*724 bus_tie_20
*725 FILLER_232
*726 FILLER_233
*727 FILLER_234
*728 FILLER_236
*729 FILLER_235
*730 bus_tie_24
*731 mgmt_vssd_lvclamp_pad
*732 FILLER_238
*733 FILLER_239
*734 FILLER_240
*735 FILLER_242
*736 FILLER_241
*737 bus_tie_26
*738 bus_tie_25
*739 bus_tie_30
*740 bus_tie_29
*741 bus_tie_28
*742 bus_tie_27
*743 FILLER_249
*744 FILLER_250
*745 FILLER_251
*746 FILLER_253
*747 FILLER_252
*748 flash_csb_pad
*749 FILLER_255
*750 FILLER_256
*751 FILLER_257
*752 FILLER_259
*753 FILLER_258
*754 bus_tie_31
*755 bus_tie_32
*756 bus_tie_33
*757 bus_tie_34
*758 bus_tie_35
*759 FILLER_266
*760 FILLER_267
*761 FILLER_268
*762 FILLER_270
*763 FILLER_269
*764 bus_tie_36
*765 flash_clk_pad
*766 FILLER_272
*767 FILLER_273
*768 FILLER_274
*769 FILLER_276
*770 FILLER_275
*771 bus_tie_38
*772 bus_tie_37
*773 bus_tie_42
*774 bus_tie_41
*775 bus_tie_40
*776 bus_tie_39
*777 FILLER_283
*778 FILLER_284
*779 FILLER_285
*780 FILLER_287
*781 FILLER_286
*782 flash_io0_pad
*783 FILLER_289
*784 FILLER_290
*785 FILLER_291
*786 FILLER_293
*787 FILLER_292
*788 bus_tie_45
*789 bus_tie_44
*790 bus_tie_43
*791 FILLER_300
*792 bus_tie_48
*793 bus_tie_47
*794 bus_tie_46
*795 FILLER_301
*796 FILLER_302
*797 FILLER_304
*798 FILLER_303
*799 flash_io1_pad
*800 FILLER_306
*801 FILLER_307
*802 FILLER_308
*803 FILLER_310
*804 FILLER_309
*805 bus_tie_49
*806 bus_tie_50
*807 bus_tie_51
*808 bus_tie_52
*809 bus_tie_53
*810 bus_tie_54
*811 FILLER_317
*812 FILLER_318
*813 FILLER_319
*814 FILLER_321
*815 FILLER_320
*816 gpio_pad
*817 FILLER_323
*818 FILLER_324
*819 FILLER_325
*820 FILLER_327
*821 FILLER_326
*822 bus_tie_55
*823 bus_tie_57
*824 bus_tie_56
*825 FILLER_334
*826 bus_tie_60
*827 bus_tie_59
*828 bus_tie_58
*829 FILLER_335
*830 FILLER_336
*831 FILLER_338
*832 FILLER_337
*833 mgmt_vssio_hvclamp_pad\[0\]
*834 FILLER_340
*835 FILLER_341
*836 FILLER_342
*837 FILLER_344
*838 FILLER_343
*839 bus_tie_64
*840 bus_tie_63
*841 bus_tie_62
*842 bus_tie_61
*843 FILLER_351
*844 FILLER_352
*845 bus_tie_66
*846 bus_tie_65
*847 FILLER_353
*848 FILLER_355
*849 FILLER_354
*850 mgmt_vdda_hvclamp_pad
*851 FILLER_357
*852 FILLER_358
*853 FILLER_359
*854 FILLER_360
*855 FILLER_361
*856 bus_tie_67
*857 bus_tie_68
*858 bus_tie_69
*859 bus_tie_70
*860 bus_tie_71
*861 bus_tie_72
*862 FILLER_368
*863 FILLER_369
*864 mgmt_corner\[1\]
*865 FILLER_605
*866 FILLER_370
*867 FILLER_371
*868 FILLER_372
*869 FILLER_373
*870 FILLER_378
*871 FILLER_377
*872 FILLER_376
*873 FILLER_375
*874 FILLER_379
*875 FILLER_380
*876 FILLER_381
*877 FILLER_382
*878 mgmt_vccd_lvclamp_pad
*879 FILLER_384
*880 FILLER_606
*881 FILLER_607
*882 FILLER_608
*883 FILLER_609
*884 FILLER_610
*885 FILLER_611
*886 FILLER_612
*887 FILLER_SB1
*888 disconnect_vdda_1
*889 FILLER_615
*890 FILLER_616
*891 FILLER_617
*892 FILLER_618
*893 FILLER_388
*894 FILLER_387
*895 FILLER_386
*896 FILLER_385
*897 FILLER_389
*898 FILLER_390
*899 FILLER_391
*900 FILLER_392
*901 mgmt_vddio_hvclamp_pad\[0\]
*902 FILLER_394
*903 FILLER_619
*904 FILLER_620
*905 FILLER_621
*906 FILLER_624
*907 FILLER_625
*908 FILLER_626
*909 FILLER_622
*910 mprj_pads\.area1_io_pad\[0\]
*911 FILLER_395
*912 FILLER_396
*913 FILLER_397
*914 FILLER_398
*915 FILLER_399
*916 FILLER_400
*917 FILLER_405
*918 FILLER_401
*919 FILLER_SB2
*920 FILLER_402
*921 disconnect_vdda_2
*922 FILLER_406
*923 FILLER_407
*924 FILLER_408
*925 FILLER_627
*926 FILLER_628
*927 FILLER_629
*928 FILLER_630
*929 FILLER_634
*930 FILLER_635
*931 FILLER_631
*932 FILLER_632
*933 mprj_pads\.area1_io_pad\[1\]
*934 FILLER_410
*935 FILLER_409
*936 FILLER_411
*937 FILLER_412
*938 FILLER_413
*939 mprj_pads\.area2_io_pad\[18\]
*940 FILLER_415
*941 FILLER_418
*942 FILLER_417
*943 FILLER_416
*944 FILLER_636
*945 FILLER_637
*946 FILLER_638
*947 FILLER_639
*948 FILLER_640
*949 FILLER_643
*950 FILLER_644
*951 FILLER_641
*952 mprj_pads\.area1_io_pad\[2\]
*953 FILLER_420
*954 FILLER_419
*955 FILLER_421
*956 FILLER_422
*957 FILLER_423
*958 mprj_pads\.area2_io_pad\[17\]
*959 FILLER_425
*960 FILLER_428
*961 FILLER_427
*962 FILLER_426
*963 FILLER_645
*964 FILLER_646
*965 FILLER_647
*966 FILLER_648
*967 FILLER_649
*968 FILLER_653
*969 FILLER_650
*970 FILLER_651
*971 mprj_pads\.area1_io_pad\[3\]
*972 FILLER_429
*973 FILLER_430
*974 FILLER_435
*975 FILLER_436
*976 FILLER_437
*977 FILLER_431
*978 FILLER_432
*979 FILLER_433
*980 mprj_pads\.area2_io_pad\[16\]
*981 FILLER_654
*982 FILLER_655
*983 FILLER_656
*984 FILLER_657
*985 FILLER_658
*986 FILLER_659
*987 FILLER_660
*988 mprj_pads\.area1_io_pad\[4\]
*989 FILLER_440
*990 FILLER_439
*991 FILLER_438
*992 FILLER_441
*993 FILLER_442
*994 FILLER_443
*995 mprj_pads\.area2_io_pad\[15\]
*996 FILLER_445
*997 FILLER_447
*998 FILLER_446
*999 FILLER_662
*1000 FILLER_663
*1001 FILLER_664
*1002 FILLER_665
*1003 FILLER_666
*1004 FILLER_667
*1005 FILLER_668
*1006 FILLER_669
*1007 mprj_pads\.area1_io_pad\[5\]
*1008 FILLER_450
*1009 FILLER_449
*1010 FILLER_448
*1011 FILLER_451
*1012 FILLER_452
*1013 FILLER_453
*1014 mprj_pads\.area2_io_pad\[14\]
*1015 FILLER_457
*1016 FILLER_456
*1017 FILLER_455
*1018 FILLER_674
*1019 FILLER_673
*1020 FILLER_672
*1021 FILLER_671
*1022 FILLER_677
*1023 FILLER_676
*1024 FILLER_675
*1025 FILLER_678
*1026 FILLER_679
*1027 mprj_pads\.area1_io_pad\[6\]
*1028 FILLER_460
*1029 FILLER_459
*1030 FILLER_458
*1031 FILLER_461
*1032 FILLER_462
*1033 FILLER_463
*1034 mprj_pads\.area2_io_pad\[13\]
*1035 FILLER_467
*1036 FILLER_466
*1037 FILLER_465
*1038 FILLER_681
*1039 FILLER_682
*1040 FILLER_683
*1041 FILLER_684
*1042 FILLER_685
*1043 FILLER_686
*1044 FILLER_687
*1045 FILLER_688
*1046 user1_vssa_hvclamp_pad\[1\]
*1047 FILLER_470
*1048 FILLER_469
*1049 FILLER_468
*1050 FILLER_471
*1051 FILLER_475
*1052 FILLER_472
*1053 FILLER_473
*1054 user2_vssd_lvclamp_pad
*1055 FILLER_476
*1056 FILLER_477
*1057 FILLER_692
*1058 FILLER_691
*1059 FILLER_690
*1060 FILLER_696
*1061 FILLER_695
*1062 FILLER_694
*1063 FILLER_693
*1064 FILLER_697
*1065 FILLER_698
*1066 user1_vssd_lvclamp_pad
*1067 FILLER_480
*1068 FILLER_479
*1069 FILLER_478
*1070 FILLER_481
*1071 FILLER_482
*1072 FILLER_483
*1073 user2_vdda_hvclamp_pad
*1074 FILLER_487
*1075 FILLER_486
*1076 FILLER_485
*1077 FILLER_700
*1078 FILLER_701
*1079 FILLER_702
*1080 FILLER_703
*1081 FILLER_704
*1082 FILLER_705
*1083 FILLER_706
*1084 FILLER_707
*1085 user1_vdda_hvclamp_pad\[1\]
*1086 FILLER_488
*1087 FILLER_489
*1088 FILLER_490
*1089 FILLER_495
*1090 FILLER_496
*1091 FILLER_491
*1092 FILLER_492
*1093 FILLER_493
*1094 mprj_pads\.area2_io_pad\[12\]
*1095 FILLER_709
*1096 FILLER_710
*1097 FILLER_711
*1098 FILLER_712
*1099 FILLER_713
*1100 FILLER_714
*1101 FILLER_715
*1102 FILLER_716
*1103 mprj_pads\.area1_io_pad\[7\]
*1104 FILLER_500
*1105 FILLER_499
*1106 FILLER_498
*1107 FILLER_497
*1108 FILLER_501
*1109 FILLER_502
*1110 FILLER_503
*1111 mprj_pads\.area2_io_pad\[11\]
*1112 FILLER_506
*1113 FILLER_505
*1114 FILLER_718
*1115 FILLER_719
*1116 FILLER_720
*1117 FILLER_721
*1118 FILLER_722
*1119 FILLER_723
*1120 FILLER_724
*1121 FILLER_510
*1122 FILLER_509
*1123 FILLER_508
*1124 FILLER_507
*1125 FILLER_511
*1126 FILLER_512
*1127 FILLER_513
*1128 mprj_pads\.area2_io_pad\[10\]
*1129 FILLER_516
*1130 FILLER_515
*1131 FILLER_728
*1132 FILLER_729
*1133 FILLER_730
*1134 FILLER_731
*1135 FILLER_732
*1136 FILLER_733
*1137 FILLER_725
*1138 FILLER_726
*1139 mprj_pads\.area1_io_pad\[8\]
*1140 FILLER_520
*1141 FILLER_519
*1142 FILLER_518
*1143 FILLER_517
*1144 FILLER_521
*1145 FILLER_522
*1146 FILLER_523
*1147 mprj_pads\.area2_io_pad\[9\]
*1148 FILLER_526
*1149 FILLER_525
*1150 FILLER_734
*1151 FILLER_737
*1152 FILLER_738
*1153 FILLER_739
*1154 FILLER_740
*1155 FILLER_741
*1156 FILLER_742
*1157 FILLER_735
*1158 mprj_pads\.area1_io_pad\[9\]
*1159 FILLER_527
*1160 FILLER_528
*1161 FILLER_529
*1162 FILLER_530
*1163 FILLER_535
*1164 FILLER_531
*1165 FILLER_532
*1166 FILLER_533
*1167 mprj_pads\.area2_io_pad\[8\]
*1168 FILLER_743
*1169 FILLER_747
*1170 FILLER_748
*1171 FILLER_749
*1172 FILLER_750
*1173 FILLER_751
*1174 FILLER_744
*1175 FILLER_745
*1176 mprj_pads\.area1_io_pad\[10\]
*1177 FILLER_539
*1178 FILLER_538
*1179 FILLER_537
*1180 FILLER_536
*1181 FILLER_540
*1182 FILLER_541
*1183 FILLER_542
*1184 FILLER_543
*1185 mprj_pads\.area2_io_pad\[7\]
*1186 FILLER_545
*1187 FILLER_752
*1188 FILLER_753
*1189 FILLER_756
*1190 FILLER_757
*1191 FILLER_758
*1192 FILLER_759
*1193 FILLER_754
*1194 mprj_pads\.area1_io_pad\[11\]
*1195 FILLER_549
*1196 FILLER_548
*1197 FILLER_547
*1198 FILLER_546
*1199 FILLER_550
*1200 FILLER_551
*1201 FILLER_552
*1202 FILLER_553
*1203 mprj_pads\.area2_io_pad\[6\]
*1204 FILLER_555
*1205 FILLER_760
*1206 FILLER_761
*1207 FILLER_762
*1208 FILLER_765
*1209 FILLER_766
*1210 FILLER_767
*1211 FILLER_768
*1212 FILLER_763
*1213 mprj_pads\.area1_io_pad\[12\]
*1214 FILLER_559
*1215 FILLER_558
*1216 FILLER_557
*1217 FILLER_556
*1218 FILLER_560
*1219 FILLER_561
*1220 FILLER_562
*1221 FILLER_563
*1222 user2_vssa_hvclamp_pad
*1223 FILLER_565
*1224 FILLER_769
*1225 FILLER_770
*1226 FILLER_771
*1227 FILLER_775
*1228 FILLER_776
*1229 FILLER_777
*1230 FILLER_772
*1231 FILLER_773
*1232 user1_vdda_hvclamp_pad\[0\]
*1233 FILLER_569
*1234 FILLER_568
*1235 FILLER_567
*1236 FILLER_566
*1237 FILLER_570
*1238 FILLER_571
*1239 FILLER_572
*1240 FILLER_573
*1241 mgmt_vddio_hvclamp_pad\[1\]
*1242 FILLER_575
*1243 FILLER_778
*1244 FILLER_779
*1245 FILLER_780
*1246 FILLER_781
*1247 FILLER_784
*1248 FILLER_785
*1249 FILLER_782
*1250 mprj_pads\.area1_io_pad\[13\]
*1251 FILLER_579
*1252 FILLER_578
*1253 FILLER_577
*1254 FILLER_576
*1255 FILLER_580
*1256 FILLER_581
*1257 FILLER_582
*1258 FILLER_583
*1259 user2_vccd_lvclamp_pad
*1260 FILLER_585
*1261 FILLER_790
*1262 FILLER_789
*1263 FILLER_788
*1264 FILLER_787
*1265 FILLER_786
*1266 FILLER_791
*1267 FILLER_792
*1268 user1_vccd_lvclamp_pad
*1269 FILLER_794
*1270 FILLER_795
*1271 FILLER_589
*1272 FILLER_588
*1273 FILLER_587
*1274 FILLER_586
*1275 FILLER_590
*1276 FILLER_591
*1277 FILLER_592
*1278 FILLER_593
*1279 mprj_pads\.area2_io_pad\[5\]
*1280 FILLER_595
*1281 FILLER_796
*1282 FILLER_797
*1283 FILLER_798
*1284 FILLER_799
*1285 FILLER_800
*1286 FILLER_803
*1287 FILLER_801
*1288 mprj_pads\.area1_io_pad\[14\]
*1289 FILLER_600
*1290 FILLER_599
*1291 FILLER_598
*1292 FILLER_597
*1293 FILLER_596
*1294 FILLER_601
*1295 FILLER_602
*1296 FILLER_604
*1297 FILLER_603
*1298 user2_corner
*1299 FILLER_5
*1300 FILLER_9
*1301 FILLER_8
*1302 FILLER_7
*1303 FILLER_6
*1304 FILLER_12
*1305 FILLER_11
*1306 FILLER_10
*1307 FILLER_13
*1308 FILLER_14
*1309 FILLER_16
*1310 FILLER_15
*1311 mprj_pads\.area2_io_pad\[4\]
*1312 FILLER_18
*1313 FILLER_19
*1314 FILLER_20
*1315 FILLER_21
*1316 FILLER_22
*1317 FILLER_23
*1318 FILLER_24
*1319 FILLER_25
*1320 FILLER_26
*1321 FILLER_27
*1322 FILLER_29
*1323 FILLER_28
*1324 mprj_pads\.area2_io_pad\[3\]
*1325 FILLER_34
*1326 FILLER_33
*1327 FILLER_32
*1328 FILLER_31
*1329 FILLER_37
*1330 FILLER_36
*1331 FILLER_35
*1332 FILLER_38
*1333 FILLER_39
*1334 FILLER_40
*1335 FILLER_42
*1336 FILLER_41
*1337 mprj_pads\.area2_io_pad\[2\]
*1338 FILLER_45
*1339 FILLER_44
*1340 FILLER_47
*1341 FILLER_46
*1342 FILLER_51
*1343 FILLER_50
*1344 FILLER_49
*1345 FILLER_48
*1346 FILLER_52
*1347 FILLER_53
*1348 FILLER_55
*1349 FILLER_54
*1350 mprj_pads\.area2_io_pad\[1\]
*1351 FILLER_58
*1352 FILLER_57
*1353 FILLER_62
*1354 FILLER_61
*1355 FILLER_60
*1356 FILLER_59
*1357 FILLER_64
*1358 FILLER_63
*1359 FILLER_65
*1360 FILLER_66
*1361 FILLER_69
*1362 FILLER_68
*1363 FILLER_67
*1364 mprj_pads\.area2_io_pad\[0\]
*1365 FILLER_74
*1366 FILLER_73
*1367 FILLER_72
*1368 FILLER_71
*1369 FILLER_77
*1370 FILLER_76
*1371 FILLER_75
*1372 FILLER_78
*1373 FILLER_79
*1374 FILLER_80
*1375 FILLER_82
*1376 FILLER_81
*1377 mgmt_vssio_hvclamp_pad\[1\]
*1378 FILLER_SB3
*1379 disconnect_vdda_0
*1380 FILLER_87
*1381 FILLER_86
*1382 FILLER_88
*1383 FILLER_89
*1384 FILLER_90
*1385 FILLER_91
*1386 FILLER_92
*1387 FILLER_93
*1388 FILLER_94
*1389 FILLER_96
*1390 FILLER_95
*1391 mprj_pads\.area1_io_pad\[18\]
*1392 FILLER_101
*1393 FILLER_100
*1394 FILLER_99
*1395 FILLER_98
*1396 FILLER_103
*1397 FILLER_102
*1398 FILLER_104
*1399 FILLER_105
*1400 FILLER_106
*1401 FILLER_107
*1402 FILLER_108
*1403 FILLER_109
*1404 FILLER_110
*1405 FILLER_111
*1406 FILLER_112
*1407 FILLER_113
*1408 FILLER_114
*1409 FILLER_115
*1410 FILLER_118
*1411 FILLER_119
*1412 FILLER_120
*1413 FILLER_121
*1414 FILLER_122
*1415 FILLER_116
*1416 mprj_pads\.area1_io_pad\[17\]
*1417 FILLER_125
*1418 FILLER_124
*1419 FILLER_123
*1420 FILLER_126
*1421 FILLER_127
*1422 FILLER_129
*1423 FILLER_128
*1424 mprj_pads\.area1_io_pad\[16\]
*1425 FILLER_133
*1426 FILLER_132
*1427 FILLER_131
*1428 FILLER_136
*1429 FILLER_135
*1430 FILLER_134
*1431 FILLER_138
*1432 FILLER_137
*1433 FILLER_139
*1434 FILLER_140
*1435 FILLER_142
*1436 FILLER_141
*1437 user1_vssa_hvclamp_pad\[0\]
*1438 FILLER_144
*1439 FILLER_148
*1440 FILLER_147
*1441 FILLER_146
*1442 FILLER_145
*1443 FILLER_151
*1444 FILLER_150
*1445 FILLER_149
*1446 FILLER_152
*1447 FILLER_153
*1448 FILLER_155
*1449 FILLER_154
*1450 mprj_pads\.area1_io_pad\[15\]
*1451 FILLER_157
*1452 FILLER_158
*1453 FILLER_159
*1454 FILLER_160
*1455 FILLER_161
*1456 FILLER_162
*1457 FILLER_163
*1458 FILLER_164
*1459 FILLER_165
*1460 FILLER_808
*1461 FILLER_807
*1462 FILLER_806
*1463 FILLER_805
*1464 FILLER_804
*1465 FILLER_809
*1466 FILLER_810
*1467 FILLER_811
*1468 user1_corner
*1469 FILLER_166
*1470 FILLER_169
*1471 FILLER_168
*1472 FILLER_167

*PORTS
clock I
clock_core I
por I
flash_clk I
flash_clk_core I
flash_clk_oeb_core I
flash_csb I
flash_csb_core I
flash_csb_oeb_core I
flash_io0 I
flash_io0_di_core I
flash_io0_do_core I
flash_io0_ieb_core I
flash_io0_oeb_core I
flash_io1 I
flash_io1_di_core I
flash_io1_do_core I
flash_io1_ieb_core I
flash_io1_oeb_core I
gpio I
gpio_in_core I
gpio_inenb_core I
gpio_mode0_core I
gpio_mode1_core I