*SPEF "ieee 1481-1999"
*DESIGN "caravan"
*DATE "11:11:11 Fri 11 11, 1111"
*VENDOR "OpenRCX"
*PROGRAM "Parallel Extraction"
*VERSION "1.0"
*DESIGN_FLOW "NAME_SCOPE LOCAL" "PIN_CAP NONE"
*DIVIDER /
*DELIMITER :
*BUS_DELIMITER []
*T_UNIT 1 NS
*C_UNIT 1 PF
*R_UNIT 1 OHM
*L_UNIT 1 HENRY

*NAME_MAP
*1 clock
*2 flash_clk
*3 flash_csb
*4 flash_io0
*5 flash_io1
*6 gpio
*7 mprj_io[0]
*8 mprj_io[10]
*9 mprj_io[11]
*10 mprj_io[12]
*11 mprj_io[13]
*12 mprj_io[14]
*13 mprj_io[15]
*14 mprj_io[16]
*15 mprj_io[17]
*16 mprj_io[18]
*17 mprj_io[19]
*18 mprj_io[1]
*19 mprj_io[20]
*20 mprj_io[21]
*21 mprj_io[22]
*22 mprj_io[23]
*23 mprj_io[24]
*24 mprj_io[25]
*25 mprj_io[26]
*26 mprj_io[27]
*27 mprj_io[28]
*28 mprj_io[29]
*29 mprj_io[2]
*30 mprj_io[30]
*31 mprj_io[31]
*32 mprj_io[32]
*33 mprj_io[33]
*34 mprj_io[34]
*35 mprj_io[35]
*36 mprj_io[36]
*37 mprj_io[37]
*38 mprj_io[3]
*39 mprj_io[4]
*40 mprj_io[5]
*41 mprj_io[6]
*42 mprj_io[7]
*43 mprj_io[8]
*44 mprj_io[9]
*45 resetb
*46 vccd
*47 vccd1
*48 vccd2
*49 vdda
*50 vdda1
*51 vdda1_2
*52 vdda2
*53 vddio
*54 vddio_2
*55 vssa
*56 vssa1
*57 vssa1_2
*58 vssa2
*59 vssd
*60 vssd1
*61 vssd2
*62 vssio
*63 vssio_2
*64 caravel_clk
*65 caravel_clk2
*66 caravel_clk_buf
*67 caravel_rstn
*68 caravel_rstn_buf
*69 clk_passthru
*70 clock_core
*71 clock_core_buf
*72 debug_in
*73 debug_mode
*74 debug_oeb
*75 debug_out
*76 ext_clk_sel
*77 ext_reset
*78 flash_clk_core
*79 flash_clk_frame
*80 flash_clk_frame_buf
*81 flash_clk_oeb
*82 flash_clk_oeb_buf
*83 flash_csb_core
*84 flash_csb_frame
*85 flash_csb_frame_buf
*86 flash_csb_oeb
*87 flash_csb_oeb_buf
*88 flash_io0_di
*89 flash_io0_di_buf
*90 flash_io0_di_core
*91 flash_io0_do
*92 flash_io0_do_buf
*93 flash_io0_do_core
*94 flash_io0_ieb
*95 flash_io0_ieb_buf
*96 flash_io0_oeb
*97 flash_io0_oeb_buf
*98 flash_io0_oeb_core
*99 flash_io1_di
*100 flash_io1_di_buf
*101 flash_io1_di_core
*102 flash_io1_do
*103 flash_io1_do_buf
*104 flash_io1_do_core
*105 flash_io1_ieb
*106 flash_io1_ieb_buf
*107 flash_io1_oeb
*108 flash_io1_oeb_buf
*109 flash_io1_oeb_core
*110 flash_io2_di_core
*111 flash_io2_do_core
*112 flash_io2_oeb_core
*113 flash_io3_di_core
*114 flash_io3_do_core
*115 flash_io3_oeb_core
*116 gpio_clock_1\[0\]
*117 gpio_clock_1\[10\]
*118 gpio_clock_1\[11\]
*119 gpio_clock_1\[12\]
*120 gpio_clock_1\[1\]
*121 gpio_clock_1\[2\]
*122 gpio_clock_1\[3\]
*123 gpio_clock_1\[4\]
*124 gpio_clock_1\[5\]
*125 gpio_clock_1\[6\]
*126 gpio_clock_1\[7\]
*127 gpio_clock_1\[8\]
*128 gpio_clock_1\[9\]
*129 gpio_clock_1_shifted\[0\]
*130 gpio_clock_2\[10\]
*131 gpio_clock_2\[11\]
*132 gpio_clock_2\[12\]
*133 gpio_clock_2\[1\]
*134 gpio_clock_2\[2\]
*135 gpio_clock_2\[3\]
*136 gpio_clock_2\[4\]
*137 gpio_clock_2\[5\]
*138 gpio_clock_2\[6\]
*139 gpio_clock_2\[7\]
*140 gpio_clock_2\[8\]
*141 gpio_clock_2\[9\]
*142 gpio_clock_2_shifted\[12\]
*143 gpio_defaults\[0\]
*144 gpio_defaults\[100\]
*145 gpio_defaults\[101\]
*146 gpio_defaults\[102\]
*147 gpio_defaults\[103\]
*148 gpio_defaults\[104\]
*149 gpio_defaults\[105\]
*150 gpio_defaults\[106\]
*151 gpio_defaults\[107\]
*152 gpio_defaults\[108\]
*153 gpio_defaults\[109\]
*154 gpio_defaults\[10\]
*155 gpio_defaults\[110\]
*156 gpio_defaults\[111\]
*157 gpio_defaults\[112\]
*158 gpio_defaults\[113\]
*159 gpio_defaults\[114\]
*160 gpio_defaults\[115\]
*161 gpio_defaults\[116\]
*162 gpio_defaults\[117\]
*163 gpio_defaults\[118\]
*164 gpio_defaults\[119\]
*165 gpio_defaults\[11\]
*166 gpio_defaults\[120\]
*167 gpio_defaults\[121\]
*168 gpio_defaults\[122\]
*169 gpio_defaults\[123\]
*170 gpio_defaults\[124\]
*171 gpio_defaults\[125\]
*172 gpio_defaults\[126\]
*173 gpio_defaults\[127\]
*174 gpio_defaults\[128\]
*175 gpio_defaults\[129\]
*176 gpio_defaults\[12\]
*177 gpio_defaults\[130\]
*178 gpio_defaults\[131\]
*179 gpio_defaults\[132\]
*180 gpio_defaults\[133\]
*181 gpio_defaults\[134\]
*182 gpio_defaults\[135\]
*183 gpio_defaults\[136\]
*184 gpio_defaults\[137\]
*185 gpio_defaults\[138\]
*186 gpio_defaults\[139\]
*187 gpio_defaults\[13\]
*188 gpio_defaults\[140\]
*189 gpio_defaults\[141\]
*190 gpio_defaults\[142\]
*191 gpio_defaults\[143\]
*192 gpio_defaults\[144\]
*193 gpio_defaults\[145\]
*194 gpio_defaults\[146\]
*195 gpio_defaults\[147\]
*196 gpio_defaults\[148\]
*197 gpio_defaults\[149\]
*198 gpio_defaults\[14\]
*199 gpio_defaults\[150\]
*200 gpio_defaults\[151\]
*201 gpio_defaults\[152\]
*202 gpio_defaults\[153\]
*203 gpio_defaults\[154\]
*204 gpio_defaults\[155\]
*205 gpio_defaults\[156\]
*206 gpio_defaults\[157\]
*207 gpio_defaults\[158\]
*208 gpio_defaults\[159\]
*209 gpio_defaults\[15\]
*210 gpio_defaults\[160\]
*211 gpio_defaults\[161\]
*212 gpio_defaults\[162\]
*213 gpio_defaults\[163\]
*214 gpio_defaults\[164\]
*215 gpio_defaults\[165\]
*216 gpio_defaults\[166\]
*217 gpio_defaults\[167\]
*218 gpio_defaults\[168\]
*219 gpio_defaults\[169\]
*220 gpio_defaults\[16\]
*221 gpio_defaults\[170\]
*222 gpio_defaults\[171\]
*223 gpio_defaults\[172\]
*224 gpio_defaults\[173\]
*225 gpio_defaults\[174\]
*226 gpio_defaults\[175\]
*227 gpio_defaults\[176\]
*228 gpio_defaults\[177\]
*229 gpio_defaults\[178\]
*230 gpio_defaults\[179\]
*231 gpio_defaults\[17\]
*232 gpio_defaults\[180\]
*233 gpio_defaults\[181\]
*234 gpio_defaults\[182\]
*235 gpio_defaults\[183\]
*236 gpio_defaults\[184\]
*237 gpio_defaults\[185\]
*238 gpio_defaults\[186\]
*239 gpio_defaults\[187\]
*240 gpio_defaults\[188\]
*241 gpio_defaults\[189\]
*242 gpio_defaults\[18\]
*243 gpio_defaults\[190\]
*244 gpio_defaults\[191\]
*245 gpio_defaults\[192\]
*246 gpio_defaults\[193\]
*247 gpio_defaults\[194\]
*248 gpio_defaults\[195\]
*249 gpio_defaults\[196\]
*250 gpio_defaults\[197\]
*251 gpio_defaults\[198\]
*252 gpio_defaults\[199\]
*253 gpio_defaults\[19\]
*254 gpio_defaults\[1\]
*255 gpio_defaults\[200\]
*256 gpio_defaults\[201\]
*257 gpio_defaults\[202\]
*258 gpio_defaults\[203\]
*259 gpio_defaults\[204\]
*260 gpio_defaults\[205\]
*261 gpio_defaults\[206\]
*262 gpio_defaults\[207\]
*263 gpio_defaults\[208\]
*264 gpio_defaults\[209\]
*265 gpio_defaults\[20\]
*266 gpio_defaults\[210\]
*267 gpio_defaults\[211\]
*268 gpio_defaults\[212\]
*269 gpio_defaults\[213\]
*270 gpio_defaults\[214\]
*271 gpio_defaults\[215\]
*272 gpio_defaults\[216\]
*273 gpio_defaults\[217\]
*274 gpio_defaults\[218\]
*275 gpio_defaults\[219\]
*276 gpio_defaults\[21\]
*277 gpio_defaults\[220\]
*278 gpio_defaults\[221\]
*279 gpio_defaults\[222\]
*280 gpio_defaults\[223\]
*281 gpio_defaults\[224\]
*282 gpio_defaults\[225\]
*283 gpio_defaults\[226\]
*284 gpio_defaults\[227\]
*285 gpio_defaults\[228\]
*286 gpio_defaults\[229\]
*287 gpio_defaults\[22\]
*288 gpio_defaults\[230\]
*289 gpio_defaults\[231\]
*290 gpio_defaults\[232\]
*291 gpio_defaults\[233\]
*292 gpio_defaults\[234\]
*293 gpio_defaults\[235\]
*294 gpio_defaults\[236\]
*295 gpio_defaults\[237\]
*296 gpio_defaults\[238\]
*297 gpio_defaults\[239\]
*298 gpio_defaults\[23\]
*299 gpio_defaults\[240\]
*300 gpio_defaults\[241\]
*301 gpio_defaults\[242\]
*302 gpio_defaults\[243\]
*303 gpio_defaults\[244\]
*304 gpio_defaults\[245\]
*305 gpio_defaults\[246\]
*306 gpio_defaults\[247\]
*307 gpio_defaults\[248\]
*308 gpio_defaults\[249\]
*309 gpio_defaults\[24\]
*310 gpio_defaults\[250\]
*311 gpio_defaults\[251\]
*312 gpio_defaults\[252\]
*313 gpio_defaults\[253\]
*314 gpio_defaults\[254\]
*315 gpio_defaults\[255\]
*316 gpio_defaults\[256\]
*317 gpio_defaults\[257\]
*318 gpio_defaults\[258\]
*319 gpio_defaults\[259\]
*320 gpio_defaults\[25\]
*321 gpio_defaults\[260\]
*322 gpio_defaults\[261\]
*323 gpio_defaults\[262\]
*324 gpio_defaults\[263\]
*325 gpio_defaults\[264\]
*326 gpio_defaults\[265\]
*327 gpio_defaults\[266\]
*328 gpio_defaults\[267\]
*329 gpio_defaults\[268\]
*330 gpio_defaults\[269\]
*331 gpio_defaults\[26\]
*332 gpio_defaults\[270\]
*333 gpio_defaults\[271\]
*334 gpio_defaults\[272\]
*335 gpio_defaults\[273\]
*336 gpio_defaults\[274\]
*337 gpio_defaults\[275\]
*338 gpio_defaults\[276\]
*339 gpio_defaults\[277\]
*340 gpio_defaults\[278\]
*341 gpio_defaults\[279\]
*342 gpio_defaults\[27\]
*343 gpio_defaults\[280\]
*344 gpio_defaults\[281\]
*345 gpio_defaults\[282\]
*346 gpio_defaults\[283\]
*347 gpio_defaults\[284\]
*348 gpio_defaults\[285\]
*349 gpio_defaults\[286\]
*350 gpio_defaults\[287\]
*351 gpio_defaults\[288\]
*352 gpio_defaults\[289\]
*353 gpio_defaults\[28\]
*354 gpio_defaults\[290\]
*355 gpio_defaults\[291\]
*356 gpio_defaults\[292\]
*357 gpio_defaults\[293\]
*358 gpio_defaults\[294\]
*359 gpio_defaults\[295\]
*360 gpio_defaults\[296\]
*361 gpio_defaults\[297\]
*362 gpio_defaults\[298\]
*363 gpio_defaults\[299\]
*364 gpio_defaults\[29\]
*365 gpio_defaults\[2\]
*366 gpio_defaults\[300\]
*367 gpio_defaults\[301\]
*368 gpio_defaults\[302\]
*369 gpio_defaults\[303\]
*370 gpio_defaults\[304\]
*371 gpio_defaults\[305\]
*372 gpio_defaults\[306\]
*373 gpio_defaults\[307\]
*374 gpio_defaults\[308\]
*375 gpio_defaults\[309\]
*376 gpio_defaults\[30\]
*377 gpio_defaults\[310\]
*378 gpio_defaults\[311\]
*379 gpio_defaults\[312\]
*380 gpio_defaults\[313\]
*381 gpio_defaults\[314\]
*382 gpio_defaults\[315\]
*383 gpio_defaults\[316\]
*384 gpio_defaults\[317\]
*385 gpio_defaults\[318\]
*386 gpio_defaults\[319\]
*387 gpio_defaults\[31\]
*388 gpio_defaults\[320\]
*389 gpio_defaults\[321\]
*390 gpio_defaults\[322\]
*391 gpio_defaults\[323\]
*392 gpio_defaults\[324\]
*393 gpio_defaults\[325\]
*394 gpio_defaults\[326\]
*395 gpio_defaults\[327\]
*396 gpio_defaults\[328\]
*397 gpio_defaults\[329\]
*398 gpio_defaults\[32\]
*399 gpio_defaults\[330\]
*400 gpio_defaults\[331\]
*401 gpio_defaults\[332\]
*402 gpio_defaults\[333\]
*403 gpio_defaults\[334\]
*404 gpio_defaults\[335\]
*405 gpio_defaults\[336\]
*406 gpio_defaults\[337\]
*407 gpio_defaults\[338\]
*408 gpio_defaults\[339\]
*409 gpio_defaults\[33\]
*410 gpio_defaults\[340\]
*411 gpio_defaults\[341\]
*412 gpio_defaults\[342\]
*413 gpio_defaults\[343\]
*414 gpio_defaults\[344\]
*415 gpio_defaults\[345\]
*416 gpio_defaults\[346\]
*417 gpio_defaults\[347\]
*418 gpio_defaults\[348\]
*419 gpio_defaults\[349\]
*420 gpio_defaults\[34\]
*421 gpio_defaults\[350\]
*422 gpio_defaults\[35\]
*423 gpio_defaults\[36\]
*424 gpio_defaults\[37\]
*425 gpio_defaults\[38\]
*426 gpio_defaults\[39\]
*427 gpio_defaults\[3\]
*428 gpio_defaults\[40\]
*429 gpio_defaults\[41\]
*430 gpio_defaults\[42\]
*431 gpio_defaults\[43\]
*432 gpio_defaults\[44\]
*433 gpio_defaults\[45\]
*434 gpio_defaults\[46\]
*435 gpio_defaults\[47\]
*436 gpio_defaults\[48\]
*437 gpio_defaults\[49\]
*438 gpio_defaults\[4\]
*439 gpio_defaults\[50\]
*440 gpio_defaults\[51\]
*441 gpio_defaults\[52\]
*442 gpio_defaults\[53\]
*443 gpio_defaults\[54\]
*444 gpio_defaults\[55\]
*445 gpio_defaults\[56\]
*446 gpio_defaults\[57\]
*447 gpio_defaults\[58\]
*448 gpio_defaults\[59\]
*449 gpio_defaults\[5\]
*450 gpio_defaults\[60\]
*451 gpio_defaults\[61\]
*452 gpio_defaults\[62\]
*453 gpio_defaults\[63\]
*454 gpio_defaults\[64\]
*455 gpio_defaults\[65\]
*456 gpio_defaults\[66\]
*457 gpio_defaults\[67\]
*458 gpio_defaults\[68\]
*459 gpio_defaults\[69\]
*460 gpio_defaults\[6\]
*461 gpio_defaults\[70\]
*462 gpio_defaults\[71\]
*463 gpio_defaults\[72\]
*464 gpio_defaults\[73\]
*465 gpio_defaults\[74\]
*466 gpio_defaults\[75\]
*467 gpio_defaults\[76\]
*468 gpio_defaults\[77\]
*469 gpio_defaults\[78\]
*470 gpio_defaults\[79\]
*471 gpio_defaults\[7\]
*472 gpio_defaults\[80\]
*473 gpio_defaults\[81\]
*474 gpio_defaults\[82\]
*475 gpio_defaults\[83\]
*476 gpio_defaults\[84\]
*477 gpio_defaults\[85\]
*478 gpio_defaults\[86\]
*479 gpio_defaults\[87\]
*480 gpio_defaults\[88\]
*481 gpio_defaults\[89\]
*482 gpio_defaults\[8\]
*483 gpio_defaults\[90\]
*484 gpio_defaults\[91\]
*485 gpio_defaults\[92\]
*486 gpio_defaults\[93\]
*487 gpio_defaults\[94\]
*488 gpio_defaults\[95\]
*489 gpio_defaults\[96\]
*490 gpio_defaults\[97\]
*491 gpio_defaults\[98\]
*492 gpio_defaults\[99\]
*493 gpio_defaults\[9\]
*494 gpio_in_core
*495 gpio_inenb_core
*496 gpio_load_1\[0\]
*497 gpio_load_1\[10\]
*498 gpio_load_1\[11\]
*499 gpio_load_1\[12\]
*500 gpio_load_1\[1\]
*501 gpio_load_1\[2\]
*502 gpio_load_1\[3\]
*503 gpio_load_1\[4\]
*504 gpio_load_1\[5\]
*505 gpio_load_1\[6\]
*506 gpio_load_1\[7\]
*507 gpio_load_1\[8\]
*508 gpio_load_1\[9\]
*509 gpio_load_1_shifted\[0\]
*510 gpio_load_2\[10\]
*511 gpio_load_2\[11\]
*512 gpio_load_2\[12\]
*513 gpio_load_2\[1\]
*514 gpio_load_2\[2\]
*515 gpio_load_2\[3\]
*516 gpio_load_2\[4\]
*517 gpio_load_2\[5\]
*518 gpio_load_2\[6\]
*519 gpio_load_2\[7\]
*520 gpio_load_2\[8\]
*521 gpio_load_2\[9\]
*522 gpio_load_2_shifted\[12\]
*523 gpio_mode0_core
*524 gpio_mode1_core
*525 gpio_out_core
*526 gpio_outenb_core
*527 gpio_resetn_1\[0\]
*528 gpio_resetn_1\[10\]
*529 gpio_resetn_1\[11\]
*530 gpio_resetn_1\[12\]
*531 gpio_resetn_1\[1\]
*532 gpio_resetn_1\[2\]
*533 gpio_resetn_1\[3\]
*534 gpio_resetn_1\[4\]
*535 gpio_resetn_1\[5\]
*536 gpio_resetn_1\[6\]
*537 gpio_resetn_1\[7\]
*538 gpio_resetn_1\[8\]
*539 gpio_resetn_1\[9\]
*540 gpio_resetn_1_shifted\[0\]
*541 gpio_resetn_2\[10\]
*542 gpio_resetn_2\[11\]
*543 gpio_resetn_2\[12\]
*544 gpio_resetn_2\[1\]
*545 gpio_resetn_2\[2\]
*546 gpio_resetn_2\[3\]
*547 gpio_resetn_2\[4\]
*548 gpio_resetn_2\[5\]
*549 gpio_resetn_2\[6\]
*550 gpio_resetn_2\[7\]
*551 gpio_resetn_2\[8\]
*552 gpio_resetn_2\[9\]
*553 gpio_resetn_2_shifted\[12\]
*554 gpio_serial_link_1\[0\]
*555 gpio_serial_link_1\[10\]
*556 gpio_serial_link_1\[11\]
*557 gpio_serial_link_1\[12\]
*558 gpio_serial_link_1\[1\]
*559 gpio_serial_link_1\[2\]
*560 gpio_serial_link_1\[3\]
*561 gpio_serial_link_1\[4\]
*562 gpio_serial_link_1\[5\]
*563 gpio_serial_link_1\[6\]
*564 gpio_serial_link_1\[7\]
*565 gpio_serial_link_1\[8\]
*566 gpio_serial_link_1\[9\]
*567 gpio_serial_link_1_shifted\[0\]
*568 gpio_serial_link_2\[10\]
*569 gpio_serial_link_2\[11\]
*570 gpio_serial_link_2\[12\]
*571 gpio_serial_link_2\[1\]
*572 gpio_serial_link_2\[2\]
*573 gpio_serial_link_2\[3\]
*574 gpio_serial_link_2\[4\]
*575 gpio_serial_link_2\[5\]
*576 gpio_serial_link_2\[6\]
*577 gpio_serial_link_2\[7\]
*578 gpio_serial_link_2\[8\]
*579 gpio_serial_link_2\[9\]
*580 gpio_serial_link_2_shifted\[12\]
*581 hk_ack_i
*582 hk_cyc_o
*583 hk_dat_i\[0\]
*584 hk_dat_i\[10\]
*585 hk_dat_i\[11\]
*586 hk_dat_i\[12\]
*587 hk_dat_i\[13\]
*588 hk_dat_i\[14\]
*589 hk_dat_i\[15\]
*590 hk_dat_i\[16\]
*591 hk_dat_i\[17\]
*592 hk_dat_i\[18\]
*593 hk_dat_i\[19\]
*594 hk_dat_i\[1\]
*595 hk_dat_i\[20\]
*596 hk_dat_i\[21\]
*597 hk_dat_i\[22\]
*598 hk_dat_i\[23\]
*599 hk_dat_i\[24\]
*600 hk_dat_i\[25\]
*601 hk_dat_i\[26\]
*602 hk_dat_i\[27\]
*603 hk_dat_i\[28\]
*604 hk_dat_i\[29\]
*605 hk_dat_i\[2\]
*606 hk_dat_i\[30\]
*607 hk_dat_i\[31\]
*608 hk_dat_i\[3\]
*609 hk_dat_i\[4\]
*610 hk_dat_i\[5\]
*611 hk_dat_i\[6\]
*612 hk_dat_i\[7\]
*613 hk_dat_i\[8\]
*614 hk_dat_i\[9\]
*615 hk_stb_o
*616 irq_spi\[0\]
*617 irq_spi\[1\]
*618 irq_spi\[2\]
*619 la_data_in_mprj\[0\]
*620 la_data_in_mprj\[100\]
*621 la_data_in_mprj\[101\]
*622 la_data_in_mprj\[102\]
*623 la_data_in_mprj\[103\]
*624 la_data_in_mprj\[104\]
*625 la_data_in_mprj\[105\]
*626 la_data_in_mprj\[106\]
*627 la_data_in_mprj\[107\]
*628 la_data_in_mprj\[108\]
*629 la_data_in_mprj\[109\]
*630 la_data_in_mprj\[10\]
*631 la_data_in_mprj\[110\]
*632 la_data_in_mprj\[111\]
*633 la_data_in_mprj\[112\]
*634 la_data_in_mprj\[113\]
*635 la_data_in_mprj\[114\]
*636 la_data_in_mprj\[115\]
*637 la_data_in_mprj\[116\]
*638 la_data_in_mprj\[117\]
*639 la_data_in_mprj\[118\]
*640 la_data_in_mprj\[119\]
*641 la_data_in_mprj\[11\]
*642 la_data_in_mprj\[120\]
*643 la_data_in_mprj\[121\]
*644 la_data_in_mprj\[122\]
*645 la_data_in_mprj\[123\]
*646 la_data_in_mprj\[124\]
*647 la_data_in_mprj\[125\]
*648 la_data_in_mprj\[126\]
*649 la_data_in_mprj\[127\]
*650 la_data_in_mprj\[12\]
*651 la_data_in_mprj\[13\]
*652 la_data_in_mprj\[14\]
*653 la_data_in_mprj\[15\]
*654 la_data_in_mprj\[16\]
*655 la_data_in_mprj\[17\]
*656 la_data_in_mprj\[18\]
*657 la_data_in_mprj\[19\]
*658 la_data_in_mprj\[1\]
*659 la_data_in_mprj\[20\]
*660 la_data_in_mprj\[21\]
*661 la_data_in_mprj\[22\]
*662 la_data_in_mprj\[23\]
*663 la_data_in_mprj\[24\]
*664 la_data_in_mprj\[25\]
*665 la_data_in_mprj\[26\]
*666 la_data_in_mprj\[27\]
*667 la_data_in_mprj\[28\]
*668 la_data_in_mprj\[29\]
*669 la_data_in_mprj\[2\]
*670 la_data_in_mprj\[30\]
*671 la_data_in_mprj\[31\]
*672 la_data_in_mprj\[32\]
*673 la_data_in_mprj\[33\]
*674 la_data_in_mprj\[34\]
*675 la_data_in_mprj\[35\]
*676 la_data_in_mprj\[36\]
*677 la_data_in_mprj\[37\]
*678 la_data_in_mprj\[38\]
*679 la_data_in_mprj\[39\]
*680 la_data_in_mprj\[3\]
*681 la_data_in_mprj\[40\]
*682 la_data_in_mprj\[41\]
*683 la_data_in_mprj\[42\]
*684 la_data_in_mprj\[43\]
*685 la_data_in_mprj\[44\]
*686 la_data_in_mprj\[45\]
*687 la_data_in_mprj\[46\]
*688 la_data_in_mprj\[47\]
*689 la_data_in_mprj\[48\]
*690 la_data_in_mprj\[49\]
*691 la_data_in_mprj\[4\]
*692 la_data_in_mprj\[50\]
*693 la_data_in_mprj\[51\]
*694 la_data_in_mprj\[52\]
*695 la_data_in_mprj\[53\]
*696 la_data_in_mprj\[54\]
*697 la_data_in_mprj\[55\]
*698 la_data_in_mprj\[56\]
*699 la_data_in_mprj\[57\]
*700 la_data_in_mprj\[58\]
*701 la_data_in_mprj\[59\]
*702 la_data_in_mprj\[5\]
*703 la_data_in_mprj\[60\]
*704 la_data_in_mprj\[61\]
*705 la_data_in_mprj\[62\]
*706 la_data_in_mprj\[63\]
*707 la_data_in_mprj\[64\]
*708 la_data_in_mprj\[65\]
*709 la_data_in_mprj\[66\]
*710 la_data_in_mprj\[67\]
*711 la_data_in_mprj\[68\]
*712 la_data_in_mprj\[69\]
*713 la_data_in_mprj\[6\]
*714 la_data_in_mprj\[70\]
*715 la_data_in_mprj\[71\]
*716 la_data_in_mprj\[72\]
*717 la_data_in_mprj\[73\]
*718 la_data_in_mprj\[74\]
*719 la_data_in_mprj\[75\]
*720 la_data_in_mprj\[76\]
*721 la_data_in_mprj\[77\]
*722 la_data_in_mprj\[78\]
*723 la_data_in_mprj\[79\]
*724 la_data_in_mprj\[7\]
*725 la_data_in_mprj\[80\]
*726 la_data_in_mprj\[81\]
*727 la_data_in_mprj\[82\]
*728 la_data_in_mprj\[83\]
*729 la_data_in_mprj\[84\]
*730 la_data_in_mprj\[85\]
*731 la_data_in_mprj\[86\]
*732 la_data_in_mprj\[87\]
*733 la_data_in_mprj\[88\]
*734 la_data_in_mprj\[89\]
*735 la_data_in_mprj\[8\]
*736 la_data_in_mprj\[90\]
*737 la_data_in_mprj\[91\]
*738 la_data_in_mprj\[92\]
*739 la_data_in_mprj\[93\]
*740 la_data_in_mprj\[94\]
*741 la_data_in_mprj\[95\]
*742 la_data_in_mprj\[96\]
*743 la_data_in_mprj\[97\]
*744 la_data_in_mprj\[98\]
*745 la_data_in_mprj\[99\]
*746 la_data_in_mprj\[9\]
*747 la_data_in_user\[0\]
*748 la_data_in_user\[100\]
*749 la_data_in_user\[101\]
*750 la_data_in_user\[102\]
*751 la_data_in_user\[103\]
*752 la_data_in_user\[104\]
*753 la_data_in_user\[105\]
*754 la_data_in_user\[106\]
*755 la_data_in_user\[107\]
*756 la_data_in_user\[108\]
*757 la_data_in_user\[109\]
*758 la_data_in_user\[10\]
*759 la_data_in_user\[110\]
*760 la_data_in_user\[111\]
*761 la_data_in_user\[112\]
*762 la_data_in_user\[113\]
*763 la_data_in_user\[114\]
*764 la_data_in_user\[115\]
*765 la_data_in_user\[116\]
*766 la_data_in_user\[117\]
*767 la_data_in_user\[118\]
*768 la_data_in_user\[119\]
*769 la_data_in_user\[11\]
*770 la_data_in_user\[120\]
*771 la_data_in_user\[121\]
*772 la_data_in_user\[122\]
*773 la_data_in_user\[123\]
*774 la_data_in_user\[124\]
*775 la_data_in_user\[125\]
*776 la_data_in_user\[126\]
*777 la_data_in_user\[127\]
*778 la_data_in_user\[12\]
*779 la_data_in_user\[13\]
*780 la_data_in_user\[14\]
*781 la_data_in_user\[15\]
*782 la_data_in_user\[16\]
*783 la_data_in_user\[17\]
*784 la_data_in_user\[18\]
*785 la_data_in_user\[19\]
*786 la_data_in_user\[1\]
*787 la_data_in_user\[20\]
*788 la_data_in_user\[21\]
*789 la_data_in_user\[22\]
*790 la_data_in_user\[23\]
*791 la_data_in_user\[24\]
*792 la_data_in_user\[25\]
*793 la_data_in_user\[26\]
*794 la_data_in_user\[27\]
*795 la_data_in_user\[28\]
*796 la_data_in_user\[29\]
*797 la_data_in_user\[2\]
*798 la_data_in_user\[30\]
*799 la_data_in_user\[31\]
*800 la_data_in_user\[32\]
*801 la_data_in_user\[33\]
*802 la_data_in_user\[34\]
*803 la_data_in_user\[35\]
*804 la_data_in_user\[36\]
*805 la_data_in_user\[37\]
*806 la_data_in_user\[38\]
*807 la_data_in_user\[39\]
*808 la_data_in_user\[3\]
*809 la_data_in_user\[40\]
*810 la_data_in_user\[41\]
*811 la_data_in_user\[42\]
*812 la_data_in_user\[43\]
*813 la_data_in_user\[44\]
*814 la_data_in_user\[45\]
*815 la_data_in_user\[46\]
*816 la_data_in_user\[47\]
*817 la_data_in_user\[48\]
*818 la_data_in_user\[49\]
*819 la_data_in_user\[4\]
*820 la_data_in_user\[50\]
*821 la_data_in_user\[51\]
*822 la_data_in_user\[52\]
*823 la_data_in_user\[53\]
*824 la_data_in_user\[54\]
*825 la_data_in_user\[55\]
*826 la_data_in_user\[56\]
*827 la_data_in_user\[57\]
*828 la_data_in_user\[58\]
*829 la_data_in_user\[59\]
*830 la_data_in_user\[5\]
*831 la_data_in_user\[60\]
*832 la_data_in_user\[61\]
*833 la_data_in_user\[62\]
*834 la_data_in_user\[63\]
*835 la_data_in_user\[64\]
*836 la_data_in_user\[65\]
*837 la_data_in_user\[66\]
*838 la_data_in_user\[67\]
*839 la_data_in_user\[68\]
*840 la_data_in_user\[69\]
*841 la_data_in_user\[6\]
*842 la_data_in_user\[70\]
*843 la_data_in_user\[71\]
*844 la_data_in_user\[72\]
*845 la_data_in_user\[73\]
*846 la_data_in_user\[74\]
*847 la_data_in_user\[75\]
*848 la_data_in_user\[76\]
*849 la_data_in_user\[77\]
*850 la_data_in_user\[78\]
*851 la_data_in_user\[79\]
*852 la_data_in_user\[7\]
*853 la_data_in_user\[80\]
*854 la_data_in_user\[81\]
*855 la_data_in_user\[82\]
*856 la_data_in_user\[83\]
*857 la_data_in_user\[84\]
*858 la_data_in_user\[85\]
*859 la_data_in_user\[86\]
*860 la_data_in_user\[87\]
*861 la_data_in_user\[88\]
*862 la_data_in_user\[89\]
*863 la_data_in_user\[8\]
*864 la_data_in_user\[90\]
*865 la_data_in_user\[91\]
*866 la_data_in_user\[92\]
*867 la_data_in_user\[93\]
*868 la_data_in_user\[94\]
*869 la_data_in_user\[95\]
*870 la_data_in_user\[96\]
*871 la_data_in_user\[97\]
*872 la_data_in_user\[98\]
*873 la_data_in_user\[99\]
*874 la_data_in_user\[9\]
*875 la_data_out_mprj\[0\]
*876 la_data_out_mprj\[100\]
*877 la_data_out_mprj\[101\]
*878 la_data_out_mprj\[102\]
*879 la_data_out_mprj\[103\]
*880 la_data_out_mprj\[104\]
*881 la_data_out_mprj\[105\]
*882 la_data_out_mprj\[106\]
*883 la_data_out_mprj\[107\]
*884 la_data_out_mprj\[108\]
*885 la_data_out_mprj\[109\]
*886 la_data_out_mprj\[10\]
*887 la_data_out_mprj\[110\]
*888 la_data_out_mprj\[111\]
*889 la_data_out_mprj\[112\]
*890 la_data_out_mprj\[113\]
*891 la_data_out_mprj\[114\]
*892 la_data_out_mprj\[115\]
*893 la_data_out_mprj\[116\]
*894 la_data_out_mprj\[117\]
*895 la_data_out_mprj\[118\]
*896 la_data_out_mprj\[119\]
*897 la_data_out_mprj\[11\]
*898 la_data_out_mprj\[120\]
*899 la_data_out_mprj\[121\]
*900 la_data_out_mprj\[122\]
*901 la_data_out_mprj\[123\]
*902 la_data_out_mprj\[124\]
*903 la_data_out_mprj\[125\]
*904 la_data_out_mprj\[126\]
*905 la_data_out_mprj\[127\]
*906 la_data_out_mprj\[12\]
*907 la_data_out_mprj\[13\]
*908 la_data_out_mprj\[14\]
*909 la_data_out_mprj\[15\]
*910 la_data_out_mprj\[16\]
*911 la_data_out_mprj\[17\]
*912 la_data_out_mprj\[18\]
*913 la_data_out_mprj\[19\]
*914 la_data_out_mprj\[1\]
*915 la_data_out_mprj\[20\]
*916 la_data_out_mprj\[21\]
*917 la_data_out_mprj\[22\]
*918 la_data_out_mprj\[23\]
*919 la_data_out_mprj\[24\]
*920 la_data_out_mprj\[25\]
*921 la_data_out_mprj\[26\]
*922 la_data_out_mprj\[27\]
*923 la_data_out_mprj\[28\]
*924 la_data_out_mprj\[29\]
*925 la_data_out_mprj\[2\]
*926 la_data_out_mprj\[30\]
*927 la_data_out_mprj\[31\]
*928 la_data_out_mprj\[32\]
*929 la_data_out_mprj\[33\]
*930 la_data_out_mprj\[34\]
*931 la_data_out_mprj\[35\]
*932 la_data_out_mprj\[36\]
*933 la_data_out_mprj\[37\]
*934 la_data_out_mprj\[38\]
*935 la_data_out_mprj\[39\]
*936 la_data_out_mprj\[3\]
*937 la_data_out_mprj\[40\]
*938 la_data_out_mprj\[41\]
*939 la_data_out_mprj\[42\]
*940 la_data_out_mprj\[43\]
*941 la_data_out_mprj\[44\]
*942 la_data_out_mprj\[45\]
*943 la_data_out_mprj\[46\]
*944 la_data_out_mprj\[47\]
*945 la_data_out_mprj\[48\]
*946 la_data_out_mprj\[49\]
*947 la_data_out_mprj\[4\]
*948 la_data_out_mprj\[50\]
*949 la_data_out_mprj\[51\]
*950 la_data_out_mprj\[52\]
*951 la_data_out_mprj\[53\]
*952 la_data_out_mprj\[54\]
*953 la_data_out_mprj\[55\]
*954 la_data_out_mprj\[56\]
*955 la_data_out_mprj\[57\]
*956 la_data_out_mprj\[58\]
*957 la_data_out_mprj\[59\]
*958 la_data_out_mprj\[5\]
*959 la_data_out_mprj\[60\]
*960 la_data_out_mprj\[61\]
*961 la_data_out_mprj\[62\]
*962 la_data_out_mprj\[63\]
*963 la_data_out_mprj\[64\]
*964 la_data_out_mprj\[65\]
*965 la_data_out_mprj\[66\]
*966 la_data_out_mprj\[67\]
*967 la_data_out_mprj\[68\]
*968 la_data_out_mprj\[69\]
*969 la_data_out_mprj\[6\]
*970 la_data_out_mprj\[70\]
*971 la_data_out_mprj\[71\]
*972 la_data_out_mprj\[72\]
*973 la_data_out_mprj\[73\]
*974 la_data_out_mprj\[74\]
*975 la_data_out_mprj\[75\]
*976 la_data_out_mprj\[76\]
*977 la_data_out_mprj\[77\]
*978 la_data_out_mprj\[78\]
*979 la_data_out_mprj\[79\]
*980 la_data_out_mprj\[7\]
*981 la_data_out_mprj\[80\]
*982 la_data_out_mprj\[81\]
*983 la_data_out_mprj\[82\]
*984 la_data_out_mprj\[83\]
*985 la_data_out_mprj\[84\]
*986 la_data_out_mprj\[85\]
*987 la_data_out_mprj\[86\]
*988 la_data_out_mprj\[87\]
*989 la_data_out_mprj\[88\]
*990 la_data_out_mprj\[89\]
*991 la_data_out_mprj\[8\]
*992 la_data_out_mprj\[90\]
*993 la_data_out_mprj\[91\]
*994 la_data_out_mprj\[92\]
*995 la_data_out_mprj\[93\]
*996 la_data_out_mprj\[94\]
*997 la_data_out_mprj\[95\]
*998 la_data_out_mprj\[96\]
*999 la_data_out_mprj\[97\]
*1000 la_data_out_mprj\[98\]
*1001 la_data_out_mprj\[99\]
*1002 la_data_out_mprj\[9\]
*1003 la_data_out_user\[0\]
*1004 la_data_out_user\[100\]
*1005 la_data_out_user\[101\]
*1006 la_data_out_user\[102\]
*1007 la_data_out_user\[103\]
*1008 la_data_out_user\[104\]
*1009 la_data_out_user\[105\]
*1010 la_data_out_user\[106\]
*1011 la_data_out_user\[107\]
*1012 la_data_out_user\[108\]
*1013 la_data_out_user\[109\]
*1014 la_data_out_user\[10\]
*1015 la_data_out_user\[110\]
*1016 la_data_out_user\[111\]
*1017 la_data_out_user\[112\]
*1018 la_data_out_user\[113\]
*1019 la_data_out_user\[114\]
*1020 la_data_out_user\[115\]
*1021 la_data_out_user\[116\]
*1022 la_data_out_user\[117\]
*1023 la_data_out_user\[118\]
*1024 la_data_out_user\[119\]
*1025 la_data_out_user\[11\]
*1026 la_data_out_user\[120\]
*1027 la_data_out_user\[121\]
*1028 la_data_out_user\[122\]
*1029 la_data_out_user\[123\]
*1030 la_data_out_user\[124\]
*1031 la_data_out_user\[125\]
*1032 la_data_out_user\[126\]
*1033 la_data_out_user\[127\]
*1034 la_data_out_user\[12\]
*1035 la_data_out_user\[13\]
*1036 la_data_out_user\[14\]
*1037 la_data_out_user\[15\]
*1038 la_data_out_user\[16\]
*1039 la_data_out_user\[17\]
*1040 la_data_out_user\[18\]
*1041 la_data_out_user\[19\]
*1042 la_data_out_user\[1\]
*1043 la_data_out_user\[20\]
*1044 la_data_out_user\[21\]
*1045 la_data_out_user\[22\]
*1046 la_data_out_user\[23\]
*1047 la_data_out_user\[24\]
*1048 la_data_out_user\[25\]
*1049 la_data_out_user\[26\]
*1050 la_data_out_user\[27\]
*1051 la_data_out_user\[28\]
*1052 la_data_out_user\[29\]
*1053 la_data_out_user\[2\]
*1054 la_data_out_user\[30\]
*1055 la_data_out_user\[31\]
*1056 la_data_out_user\[32\]
*1057 la_data_out_user\[33\]
*1058 la_data_out_user\[34\]
*1059 la_data_out_user\[35\]
*1060 la_data_out_user\[36\]
*1061 la_data_out_user\[37\]
*1062 la_data_out_user\[38\]
*1063 la_data_out_user\[39\]
*1064 la_data_out_user\[3\]
*1065 la_data_out_user\[40\]
*1066 la_data_out_user\[41\]
*1067 la_data_out_user\[42\]
*1068 la_data_out_user\[43\]
*1069 la_data_out_user\[44\]
*1070 la_data_out_user\[45\]
*1071 la_data_out_user\[46\]
*1072 la_data_out_user\[47\]
*1073 la_data_out_user\[48\]
*1074 la_data_out_user\[49\]
*1075 la_data_out_user\[4\]
*1076 la_data_out_user\[50\]
*1077 la_data_out_user\[51\]
*1078 la_data_out_user\[52\]
*1079 la_data_out_user\[53\]
*1080 la_data_out_user\[54\]
*1081 la_data_out_user\[55\]
*1082 la_data_out_user\[56\]
*1083 la_data_out_user\[57\]
*1084 la_data_out_user\[58\]
*1085 la_data_out_user\[59\]
*1086 la_data_out_user\[5\]
*1087 la_data_out_user\[60\]
*1088 la_data_out_user\[61\]
*1089 la_data_out_user\[62\]
*1090 la_data_out_user\[63\]
*1091 la_data_out_user\[64\]
*1092 la_data_out_user\[65\]
*1093 la_data_out_user\[66\]
*1094 la_data_out_user\[67\]
*1095 la_data_out_user\[68\]
*1096 la_data_out_user\[69\]
*1097 la_data_out_user\[6\]
*1098 la_data_out_user\[70\]
*1099 la_data_out_user\[71\]
*1100 la_data_out_user\[72\]
*1101 la_data_out_user\[73\]
*1102 la_data_out_user\[74\]
*1103 la_data_out_user\[75\]
*1104 la_data_out_user\[76\]
*1105 la_data_out_user\[77\]
*1106 la_data_out_user\[78\]
*1107 la_data_out_user\[79\]
*1108 la_data_out_user\[7\]
*1109 la_data_out_user\[80\]
*1110 la_data_out_user\[81\]
*1111 la_data_out_user\[82\]
*1112 la_data_out_user\[83\]
*1113 la_data_out_user\[84\]
*1114 la_data_out_user\[85\]
*1115 la_data_out_user\[86\]
*1116 la_data_out_user\[87\]
*1117 la_data_out_user\[88\]
*1118 la_data_out_user\[89\]
*1119 la_data_out_user\[8\]
*1120 la_data_out_user\[90\]
*1121 la_data_out_user\[91\]
*1122 la_data_out_user\[92\]
*1123 la_data_out_user\[93\]
*1124 la_data_out_user\[94\]
*1125 la_data_out_user\[95\]
*1126 la_data_out_user\[96\]
*1127 la_data_out_user\[97\]
*1128 la_data_out_user\[98\]
*1129 la_data_out_user\[99\]
*1130 la_data_out_user\[9\]
*1131 la_iena_mprj\[0\]
*1132 la_iena_mprj\[100\]
*1133 la_iena_mprj\[101\]
*1134 la_iena_mprj\[102\]
*1135 la_iena_mprj\[103\]
*1136 la_iena_mprj\[104\]
*1137 la_iena_mprj\[105\]
*1138 la_iena_mprj\[106\]
*1139 la_iena_mprj\[107\]
*1140 la_iena_mprj\[108\]
*1141 la_iena_mprj\[109\]
*1142 la_iena_mprj\[10\]
*1143 la_iena_mprj\[110\]
*1144 la_iena_mprj\[111\]
*1145 la_iena_mprj\[112\]
*1146 la_iena_mprj\[113\]
*1147 la_iena_mprj\[114\]
*1148 la_iena_mprj\[115\]
*1149 la_iena_mprj\[116\]
*1150 la_iena_mprj\[117\]
*1151 la_iena_mprj\[118\]
*1152 la_iena_mprj\[119\]
*1153 la_iena_mprj\[11\]
*1154 la_iena_mprj\[120\]
*1155 la_iena_mprj\[121\]
*1156 la_iena_mprj\[122\]
*1157 la_iena_mprj\[123\]
*1158 la_iena_mprj\[124\]
*1159 la_iena_mprj\[125\]
*1160 la_iena_mprj\[126\]
*1161 la_iena_mprj\[127\]
*1162 la_iena_mprj\[12\]
*1163 la_iena_mprj\[13\]
*1164 la_iena_mprj\[14\]
*1165 la_iena_mprj\[15\]
*1166 la_iena_mprj\[16\]