*SPEF "ieee 1481-1999"
*DESIGN "caravan"
*DATE "11:11:11 Fri 11 11, 1111"
*VENDOR "OpenRCX"
*PROGRAM "Parallel Extraction"
*VERSION "1.0"
*DESIGN_FLOW "NAME_SCOPE LOCAL" "PIN_CAP NONE"
*DIVIDER /
*DELIMITER :
*BUS_DELIMITER []
*T_UNIT 1 NS
*C_UNIT 1 PF
*R_UNIT 1 OHM
*L_UNIT 1 HENRY

*NAME_MAP
*1 clock
*2 flash_clk
*3 flash_csb
*4 flash_io0
*5 flash_io1
*6 gpio
*7 mprj_io[0]
*8 mprj_io[10]
*9 mprj_io[11]
*10 mprj_io[12]
*11 mprj_io[13]
*12 mprj_io[14]
*13 mprj_io[15]
*14 mprj_io[16]
*15 mprj_io[17]
*16 mprj_io[18]
*17 mprj_io[19]
*18 mprj_io[1]
*19 mprj_io[20]
*20 mprj_io[21]
*21 mprj_io[22]
*22 mprj_io[23]
*23 mprj_io[24]
*24 mprj_io[25]
*25 mprj_io[26]
*26 mprj_io[27]
*27 mprj_io[28]
*28 mprj_io[29]
*29 mprj_io[2]
*30 mprj_io[30]
*31 mprj_io[31]
*32 mprj_io[32]
*33 mprj_io[33]
*34 mprj_io[34]
*35 mprj_io[35]
*36 mprj_io[36]
*37 mprj_io[37]
*38 mprj_io[3]
*39 mprj_io[4]
*40 mprj_io[5]
*41 mprj_io[6]
*42 mprj_io[7]
*43 mprj_io[8]
*44 mprj_io[9]
*45 resetb
*46 vccd1
*47 vccd2
*48 vdda
*49 vdda1
*50 vdda1_2
*51 vdda2
*52 vddio_2
*53 vssa1
*54 vssa1_2
*55 vssa2
*56 vssd1
*57 vssd2
*58 vssio_2
*59 vddio
*60 vssio
*61 vssa
*62 vccd
*63 vssd
*64 caravel_clk
*65 caravel_clk2
*66 caravel_rstn
*67 clock_core
*68 debug_in
*69 debug_mode
*70 debug_oeb
*71 debug_out
*72 ext_clk_sel
*73 ext_reset
*74 flash_clk_core
*75 flash_clk_frame
*76 flash_clk_oeb
*77 flash_csb_core
*78 flash_csb_frame
*79 flash_csb_oeb
*80 flash_io0_di
*81 flash_io0_di_core
*82 flash_io0_do
*83 flash_io0_do_core
*84 flash_io0_ieb
*85 flash_io0_oeb
*86 flash_io0_oeb_core
*87 flash_io1_di
*88 flash_io1_di_core
*89 flash_io1_do
*90 flash_io1_do_core
*91 flash_io1_ieb
*92 flash_io1_oeb
*93 flash_io1_oeb_core
*94 flash_io2_di_core
*95 flash_io2_do_core
*96 flash_io2_oeb_core
*97 flash_io3_di_core
*98 flash_io3_do_core
*99 flash_io3_oeb_core
*100 gpio_clock_1\[0\]
*101 gpio_clock_1\[10\]
*102 gpio_clock_1\[11\]
*103 gpio_clock_1\[12\]
*104 gpio_clock_1\[1\]
*105 gpio_clock_1\[2\]
*106 gpio_clock_1\[3\]
*107 gpio_clock_1\[4\]
*108 gpio_clock_1\[5\]
*109 gpio_clock_1\[6\]
*110 gpio_clock_1\[7\]
*111 gpio_clock_1\[8\]
*112 gpio_clock_1\[9\]
*113 gpio_clock_1_shifted\[0\]
*114 gpio_defaults\[0\]
*115 gpio_defaults\[100\]
*116 gpio_defaults\[101\]
*117 gpio_defaults\[102\]
*118 gpio_defaults\[103\]
*119 gpio_defaults\[104\]
*120 gpio_defaults\[105\]
*121 gpio_defaults\[106\]
*122 gpio_defaults\[107\]
*123 gpio_defaults\[108\]
*124 gpio_defaults\[109\]
*125 gpio_defaults\[10\]
*126 gpio_defaults\[110\]
*127 gpio_defaults\[111\]
*128 gpio_defaults\[112\]
*129 gpio_defaults\[113\]
*130 gpio_defaults\[114\]
*131 gpio_defaults\[115\]
*132 gpio_defaults\[116\]
*133 gpio_defaults\[117\]
*134 gpio_defaults\[118\]
*135 gpio_defaults\[119\]
*136 gpio_defaults\[11\]
*137 gpio_defaults\[120\]
*138 gpio_defaults\[121\]
*139 gpio_defaults\[122\]
*140 gpio_defaults\[123\]
*141 gpio_defaults\[124\]
*142 gpio_defaults\[125\]
*143 gpio_defaults\[126\]
*144 gpio_defaults\[127\]
*145 gpio_defaults\[128\]
*146 gpio_defaults\[129\]
*147 gpio_defaults\[12\]
*148 gpio_defaults\[130\]
*149 gpio_defaults\[131\]
*150 gpio_defaults\[132\]
*151 gpio_defaults\[133\]
*152 gpio_defaults\[134\]
*153 gpio_defaults\[135\]
*154 gpio_defaults\[136\]
*155 gpio_defaults\[137\]
*156 gpio_defaults\[138\]
*157 gpio_defaults\[139\]
*158 gpio_defaults\[13\]
*159 gpio_defaults\[140\]
*160 gpio_defaults\[141\]
*161 gpio_defaults\[142\]
*162 gpio_defaults\[143\]
*163 gpio_defaults\[144\]
*164 gpio_defaults\[145\]
*165 gpio_defaults\[146\]
*166 gpio_defaults\[147\]
*167 gpio_defaults\[148\]
*168 gpio_defaults\[149\]
*169 gpio_defaults\[14\]
*170 gpio_defaults\[150\]
*171 gpio_defaults\[151\]
*172 gpio_defaults\[152\]
*173 gpio_defaults\[153\]
*174 gpio_defaults\[154\]
*175 gpio_defaults\[155\]
*176 gpio_defaults\[156\]
*177 gpio_defaults\[157\]
*178 gpio_defaults\[158\]
*179 gpio_defaults\[159\]
*180 gpio_defaults\[15\]
*181 gpio_defaults\[160\]
*182 gpio_defaults\[161\]
*183 gpio_defaults\[162\]
*184 gpio_defaults\[163\]
*185 gpio_defaults\[164\]
*186 gpio_defaults\[165\]
*187 gpio_defaults\[166\]
*188 gpio_defaults\[167\]
*189 gpio_defaults\[168\]
*190 gpio_defaults\[169\]
*191 gpio_defaults\[16\]
*192 gpio_defaults\[170\]
*193 gpio_defaults\[171\]
*194 gpio_defaults\[172\]
*195 gpio_defaults\[173\]
*196 gpio_defaults\[174\]
*197 gpio_defaults\[175\]
*198 gpio_defaults\[176\]
*199 gpio_defaults\[177\]
*200 gpio_defaults\[178\]
*201 gpio_defaults\[179\]
*202 gpio_defaults\[17\]
*203 gpio_defaults\[180\]
*204 gpio_defaults\[181\]
*205 gpio_defaults\[182\]
*206 gpio_defaults\[183\]
*207 gpio_defaults\[184\]
*208 gpio_defaults\[185\]
*209 gpio_defaults\[186\]
*210 gpio_defaults\[187\]
*211 gpio_defaults\[188\]
*212 gpio_defaults\[189\]
*213 gpio_defaults\[18\]
*214 gpio_defaults\[190\]
*215 gpio_defaults\[191\]
*216 gpio_defaults\[192\]
*217 gpio_defaults\[193\]
*218 gpio_defaults\[194\]
*219 gpio_defaults\[195\]
*220 gpio_defaults\[196\]
*221 gpio_defaults\[197\]
*222 gpio_defaults\[198\]
*223 gpio_defaults\[199\]
*224 gpio_defaults\[19\]
*225 gpio_defaults\[1\]
*226 gpio_defaults\[200\]
*227 gpio_defaults\[201\]
*228 gpio_defaults\[202\]
*229 gpio_defaults\[203\]
*230 gpio_defaults\[204\]
*231 gpio_defaults\[205\]
*232 gpio_defaults\[206\]
*233 gpio_defaults\[207\]
*234 gpio_defaults\[208\]
*235 gpio_defaults\[209\]
*236 gpio_defaults\[20\]
*237 gpio_defaults\[210\]
*238 gpio_defaults\[211\]
*239 gpio_defaults\[212\]
*240 gpio_defaults\[213\]
*241 gpio_defaults\[214\]
*242 gpio_defaults\[215\]
*243 gpio_defaults\[216\]
*244 gpio_defaults\[217\]
*245 gpio_defaults\[218\]
*246 gpio_defaults\[219\]
*247 gpio_defaults\[21\]
*248 gpio_defaults\[220\]
*249 gpio_defaults\[221\]
*250 gpio_defaults\[222\]
*251 gpio_defaults\[223\]
*252 gpio_defaults\[224\]
*253 gpio_defaults\[225\]
*254 gpio_defaults\[226\]
*255 gpio_defaults\[227\]
*256 gpio_defaults\[228\]
*257 gpio_defaults\[229\]
*258 gpio_defaults\[22\]
*259 gpio_defaults\[230\]
*260 gpio_defaults\[231\]
*261 gpio_defaults\[232\]
*262 gpio_defaults\[233\]
*263 gpio_defaults\[234\]
*264 gpio_defaults\[235\]
*265 gpio_defaults\[236\]
*266 gpio_defaults\[237\]
*267 gpio_defaults\[238\]
*268 gpio_defaults\[239\]
*269 gpio_defaults\[23\]
*270 gpio_defaults\[240\]
*271 gpio_defaults\[241\]
*272 gpio_defaults\[242\]
*273 gpio_defaults\[243\]
*274 gpio_defaults\[244\]
*275 gpio_defaults\[245\]
*276 gpio_defaults\[246\]
*277 gpio_defaults\[247\]
*278 gpio_defaults\[248\]
*279 gpio_defaults\[249\]
*280 gpio_defaults\[24\]
*281 gpio_defaults\[250\]
*282 gpio_defaults\[251\]
*283 gpio_defaults\[252\]
*284 gpio_defaults\[253\]
*285 gpio_defaults\[254\]
*286 gpio_defaults\[255\]
*287 gpio_defaults\[256\]
*288 gpio_defaults\[257\]
*289 gpio_defaults\[258\]
*290 gpio_defaults\[259\]
*291 gpio_defaults\[25\]
*292 gpio_defaults\[260\]
*293 gpio_defaults\[261\]
*294 gpio_defaults\[262\]
*295 gpio_defaults\[263\]
*296 gpio_defaults\[264\]
*297 gpio_defaults\[265\]
*298 gpio_defaults\[266\]
*299 gpio_defaults\[267\]
*300 gpio_defaults\[268\]
*301 gpio_defaults\[269\]
*302 gpio_defaults\[26\]
*303 gpio_defaults\[270\]
*304 gpio_defaults\[271\]
*305 gpio_defaults\[272\]
*306 gpio_defaults\[273\]
*307 gpio_defaults\[274\]
*308 gpio_defaults\[275\]
*309 gpio_defaults\[276\]
*310 gpio_defaults\[277\]
*311 gpio_defaults\[278\]
*312 gpio_defaults\[279\]
*313 gpio_defaults\[27\]
*314 gpio_defaults\[280\]
*315 gpio_defaults\[281\]
*316 gpio_defaults\[282\]
*317 gpio_defaults\[283\]
*318 gpio_defaults\[284\]
*319 gpio_defaults\[285\]
*320 gpio_defaults\[286\]
*321 gpio_defaults\[287\]
*322 gpio_defaults\[288\]
*323 gpio_defaults\[289\]
*324 gpio_defaults\[28\]
*325 gpio_defaults\[290\]
*326 gpio_defaults\[291\]
*327 gpio_defaults\[292\]
*328 gpio_defaults\[293\]
*329 gpio_defaults\[294\]
*330 gpio_defaults\[295\]
*331 gpio_defaults\[296\]
*332 gpio_defaults\[297\]
*333 gpio_defaults\[298\]
*334 gpio_defaults\[299\]
*335 gpio_defaults\[29\]
*336 gpio_defaults\[2\]
*337 gpio_defaults\[300\]
*338 gpio_defaults\[301\]
*339 gpio_defaults\[302\]
*340 gpio_defaults\[303\]
*341 gpio_defaults\[304\]
*342 gpio_defaults\[305\]
*343 gpio_defaults\[306\]
*344 gpio_defaults\[307\]
*345 gpio_defaults\[308\]
*346 gpio_defaults\[309\]
*347 gpio_defaults\[30\]
*348 gpio_defaults\[310\]
*349 gpio_defaults\[311\]
*350 gpio_defaults\[312\]
*351 gpio_defaults\[313\]
*352 gpio_defaults\[314\]
*353 gpio_defaults\[315\]
*354 gpio_defaults\[316\]
*355 gpio_defaults\[317\]
*356 gpio_defaults\[318\]
*357 gpio_defaults\[319\]
*358 gpio_defaults\[31\]
*359 gpio_defaults\[320\]
*360 gpio_defaults\[321\]
*361 gpio_defaults\[322\]
*362 gpio_defaults\[323\]
*363 gpio_defaults\[324\]
*364 gpio_defaults\[325\]
*365 gpio_defaults\[326\]
*366 gpio_defaults\[327\]
*367 gpio_defaults\[328\]
*368 gpio_defaults\[329\]
*369 gpio_defaults\[32\]
*370 gpio_defaults\[330\]
*371 gpio_defaults\[331\]
*372 gpio_defaults\[332\]
*373 gpio_defaults\[333\]
*374 gpio_defaults\[334\]
*375 gpio_defaults\[335\]
*376 gpio_defaults\[336\]
*377 gpio_defaults\[337\]
*378 gpio_defaults\[338\]
*379 gpio_defaults\[339\]
*380 gpio_defaults\[33\]
*381 gpio_defaults\[340\]
*382 gpio_defaults\[341\]
*383 gpio_defaults\[342\]
*384 gpio_defaults\[343\]
*385 gpio_defaults\[344\]
*386 gpio_defaults\[345\]
*387 gpio_defaults\[346\]
*388 gpio_defaults\[347\]
*389 gpio_defaults\[348\]
*390 gpio_defaults\[349\]
*391 gpio_defaults\[34\]
*392 gpio_defaults\[350\]
*393 gpio_defaults\[35\]
*394 gpio_defaults\[36\]
*395 gpio_defaults\[37\]
*396 gpio_defaults\[38\]
*397 gpio_defaults\[39\]
*398 gpio_defaults\[3\]
*399 gpio_defaults\[40\]
*400 gpio_defaults\[41\]
*401 gpio_defaults\[42\]
*402 gpio_defaults\[43\]
*403 gpio_defaults\[44\]
*404 gpio_defaults\[45\]
*405 gpio_defaults\[46\]
*406 gpio_defaults\[47\]
*407 gpio_defaults\[48\]
*408 gpio_defaults\[49\]
*409 gpio_defaults\[4\]
*410 gpio_defaults\[50\]
*411 gpio_defaults\[51\]
*412 gpio_defaults\[52\]
*413 gpio_defaults\[53\]
*414 gpio_defaults\[54\]
*415 gpio_defaults\[55\]
*416 gpio_defaults\[56\]
*417 gpio_defaults\[57\]
*418 gpio_defaults\[58\]
*419 gpio_defaults\[59\]
*420 gpio_defaults\[5\]
*421 gpio_defaults\[60\]
*422 gpio_defaults\[61\]
*423 gpio_defaults\[62\]
*424 gpio_defaults\[63\]
*425 gpio_defaults\[64\]
*426 gpio_defaults\[65\]
*427 gpio_defaults\[66\]
*428 gpio_defaults\[67\]
*429 gpio_defaults\[68\]
*430 gpio_defaults\[69\]
*431 gpio_defaults\[6\]
*432 gpio_defaults\[70\]
*433 gpio_defaults\[71\]
*434 gpio_defaults\[72\]
*435 gpio_defaults\[73\]
*436 gpio_defaults\[74\]
*437 gpio_defaults\[75\]
*438 gpio_defaults\[76\]
*439 gpio_defaults\[77\]
*440 gpio_defaults\[78\]
*441 gpio_defaults\[79\]
*442 gpio_defaults\[7\]
*443 gpio_defaults\[80\]
*444 gpio_defaults\[81\]
*445 gpio_defaults\[82\]
*446 gpio_defaults\[83\]
*447 gpio_defaults\[84\]
*448 gpio_defaults\[85\]
*449 gpio_defaults\[86\]
*450 gpio_defaults\[87\]
*451 gpio_defaults\[88\]
*452 gpio_defaults\[89\]
*453 gpio_defaults\[8\]
*454 gpio_defaults\[90\]
*455 gpio_defaults\[91\]
*456 gpio_defaults\[92\]
*457 gpio_defaults\[93\]
*458 gpio_defaults\[94\]
*459 gpio_defaults\[95\]
*460 gpio_defaults\[96\]
*461 gpio_defaults\[97\]
*462 gpio_defaults\[98\]
*463 gpio_defaults\[99\]
*464 gpio_defaults\[9\]
*465 gpio_in_core
*466 gpio_inenb_core
*467 gpio_load_1\[0\]
*468 gpio_load_1\[10\]
*469 gpio_load_1\[11\]
*470 gpio_load_1\[12\]
*471 gpio_load_1\[1\]
*472 gpio_load_1\[2\]
*473 gpio_load_1\[3\]
*474 gpio_load_1\[4\]
*475 gpio_load_1\[5\]
*476 gpio_load_1\[6\]
*477 gpio_load_1\[7\]
*478 gpio_load_1\[8\]
*479 gpio_load_1\[9\]
*480 gpio_load_1_shifted\[0\]
*481 gpio_mode0_core
*482 gpio_mode1_core
*483 gpio_out_core
*484 gpio_outenb_core
*485 gpio_resetn_1\[0\]
*486 gpio_resetn_1\[10\]
*487 gpio_resetn_1\[11\]
*488 gpio_resetn_1\[12\]
*489 gpio_resetn_1\[1\]
*490 gpio_resetn_1\[2\]
*491 gpio_resetn_1\[3\]
*492 gpio_resetn_1\[4\]
*493 gpio_resetn_1\[5\]
*494 gpio_resetn_1\[6\]
*495 gpio_resetn_1\[7\]
*496 gpio_resetn_1\[8\]
*497 gpio_resetn_1\[9\]
*498 gpio_resetn_1_shifted\[0\]
*499 gpio_serial_link_1\[0\]
*500 gpio_serial_link_1\[10\]
*501 gpio_serial_link_1\[11\]
*502 gpio_serial_link_1\[12\]
*503 gpio_serial_link_1\[1\]
*504 gpio_serial_link_1\[2\]
*505 gpio_serial_link_1\[3\]
*506 gpio_serial_link_1\[4\]
*507 gpio_serial_link_1\[5\]
*508 gpio_serial_link_1\[6\]
*509 gpio_serial_link_1\[7\]
*510 gpio_serial_link_1\[8\]
*511 gpio_serial_link_1\[9\]
*512 gpio_serial_link_1_shifted\[0\]
*513 gpio_serial_link_2\[10\]
*514 gpio_serial_link_2\[11\]
*515 gpio_serial_link_2\[12\]
*516 gpio_serial_link_2\[1\]
*517 gpio_serial_link_2\[2\]
*518 gpio_serial_link_2\[3\]
*519 gpio_serial_link_2\[4\]
*520 gpio_serial_link_2\[5\]
*521 gpio_serial_link_2\[6\]
*522 gpio_serial_link_2\[7\]
*523 gpio_serial_link_2\[8\]
*524 gpio_serial_link_2\[9\]
*525 gpio_serial_link_2_shifted\[12\]
*526 hk_ack_i
*527 hk_dat_i\[0\]
*528 hk_dat_i\[10\]
*529 hk_dat_i\[11\]
*530 hk_dat_i\[12\]
*531 hk_dat_i\[13\]
*532 hk_dat_i\[14\]
*533 hk_dat_i\[15\]
*534 hk_dat_i\[16\]
*535 hk_dat_i\[17\]
*536 hk_dat_i\[18\]
*537 hk_dat_i\[19\]
*538 hk_dat_i\[1\]
*539 hk_dat_i\[20\]
*540 hk_dat_i\[21\]
*541 hk_dat_i\[22\]
*542 hk_dat_i\[23\]
*543 hk_dat_i\[24\]
*544 hk_dat_i\[25\]
*545 hk_dat_i\[26\]
*546 hk_dat_i\[27\]
*547 hk_dat_i\[28\]
*548 hk_dat_i\[29\]
*549 hk_dat_i\[2\]
*550 hk_dat_i\[30\]
*551 hk_dat_i\[31\]
*552 hk_dat_i\[3\]
*553 hk_dat_i\[4\]
*554 hk_dat_i\[5\]
*555 hk_dat_i\[6\]
*556 hk_dat_i\[7\]
*557 hk_dat_i\[8\]
*558 hk_dat_i\[9\]
*559 hk_stb_o
*560 hkspi_sram_addr\[0\]
*561 hkspi_sram_addr\[1\]
*562 hkspi_sram_addr\[2\]
*563 hkspi_sram_addr\[3\]
*564 hkspi_sram_addr\[4\]
*565 hkspi_sram_addr\[5\]
*566 hkspi_sram_addr\[6\]
*567 hkspi_sram_addr\[7\]
*568 hkspi_sram_clk
*569 hkspi_sram_csb
*570 hkspi_sram_data\[0\]
*571 hkspi_sram_data\[10\]
*572 hkspi_sram_data\[11\]
*573 hkspi_sram_data\[12\]
*574 hkspi_sram_data\[13\]
*575 hkspi_sram_data\[14\]
*576 hkspi_sram_data\[15\]
*577 hkspi_sram_data\[16\]
*578 hkspi_sram_data\[17\]
*579 hkspi_sram_data\[18\]
*580 hkspi_sram_data\[19\]
*581 hkspi_sram_data\[1\]
*582 hkspi_sram_data\[20\]
*583 hkspi_sram_data\[21\]
*584 hkspi_sram_data\[22\]
*585 hkspi_sram_data\[23\]
*586 hkspi_sram_data\[24\]
*587 hkspi_sram_data\[25\]
*588 hkspi_sram_data\[26\]
*589 hkspi_sram_data\[27\]
*590 hkspi_sram_data\[28\]
*591 hkspi_sram_data\[29\]
*592 hkspi_sram_data\[2\]
*593 hkspi_sram_data\[30\]
*594 hkspi_sram_data\[31\]
*595 hkspi_sram_data\[3\]
*596 hkspi_sram_data\[4\]
*597 hkspi_sram_data\[5\]
*598 hkspi_sram_data\[6\]
*599 hkspi_sram_data\[7\]
*600 hkspi_sram_data\[8\]
*601 hkspi_sram_data\[9\]
*602 irq_spi\[0\]
*603 irq_spi\[1\]
*604 irq_spi\[2\]
*605 la_data_in_mprj\[0\]
*606 la_data_in_mprj\[100\]
*607 la_data_in_mprj\[101\]
*608 la_data_in_mprj\[102\]
*609 la_data_in_mprj\[103\]
*610 la_data_in_mprj\[104\]
*611 la_data_in_mprj\[105\]
*612 la_data_in_mprj\[106\]
*613 la_data_in_mprj\[107\]
*614 la_data_in_mprj\[108\]
*615 la_data_in_mprj\[109\]
*616 la_data_in_mprj\[10\]
*617 la_data_in_mprj\[110\]
*618 la_data_in_mprj\[111\]
*619 la_data_in_mprj\[112\]
*620 la_data_in_mprj\[113\]
*621 la_data_in_mprj\[114\]
*622 la_data_in_mprj\[115\]
*623 la_data_in_mprj\[116\]
*624 la_data_in_mprj\[117\]
*625 la_data_in_mprj\[118\]
*626 la_data_in_mprj\[119\]
*627 la_data_in_mprj\[11\]
*628 la_data_in_mprj\[120\]
*629 la_data_in_mprj\[121\]
*630 la_data_in_mprj\[122\]
*631 la_data_in_mprj\[123\]
*632 la_data_in_mprj\[124\]
*633 la_data_in_mprj\[125\]
*634 la_data_in_mprj\[126\]
*635 la_data_in_mprj\[127\]
*636 la_data_in_mprj\[12\]
*637 la_data_in_mprj\[13\]
*638 la_data_in_mprj\[14\]
*639 la_data_in_mprj\[15\]
*640 la_data_in_mprj\[16\]
*641 la_data_in_mprj\[17\]
*642 la_data_in_mprj\[18\]
*643 la_data_in_mprj\[19\]
*644 la_data_in_mprj\[1\]
*645 la_data_in_mprj\[20\]
*646 la_data_in_mprj\[21\]
*647 la_data_in_mprj\[22\]
*648 la_data_in_mprj\[23\]
*649 la_data_in_mprj\[24\]
*650 la_data_in_mprj\[25\]
*651 la_data_in_mprj\[26\]
*652 la_data_in_mprj\[27\]
*653 la_data_in_mprj\[28\]
*654 la_data_in_mprj\[29\]
*655 la_data_in_mprj\[2\]
*656 la_data_in_mprj\[30\]
*657 la_data_in_mprj\[31\]
*658 la_data_in_mprj\[32\]
*659 la_data_in_mprj\[33\]
*660 la_data_in_mprj\[34\]
*661 la_data_in_mprj\[35\]
*662 la_data_in_mprj\[36\]
*663 la_data_in_mprj\[37\]
*664 la_data_in_mprj\[38\]
*665 la_data_in_mprj\[39\]
*666 la_data_in_mprj\[3\]
*667 la_data_in_mprj\[40\]
*668 la_data_in_mprj\[41\]
*669 la_data_in_mprj\[42\]
*670 la_data_in_mprj\[43\]
*671 la_data_in_mprj\[44\]
*672 la_data_in_mprj\[45\]
*673 la_data_in_mprj\[46\]
*674 la_data_in_mprj\[47\]
*675 la_data_in_mprj\[48\]
*676 la_data_in_mprj\[49\]
*677 la_data_in_mprj\[4\]
*678 la_data_in_mprj\[50\]
*679 la_data_in_mprj\[51\]
*680 la_data_in_mprj\[52\]
*681 la_data_in_mprj\[53\]
*682 la_data_in_mprj\[54\]
*683 la_data_in_mprj\[55\]
*684 la_data_in_mprj\[56\]
*685 la_data_in_mprj\[57\]
*686 la_data_in_mprj\[58\]
*687 la_data_in_mprj\[59\]
*688 la_data_in_mprj\[5\]
*689 la_data_in_mprj\[60\]
*690 la_data_in_mprj\[61\]
*691 la_data_in_mprj\[62\]
*692 la_data_in_mprj\[63\]
*693 la_data_in_mprj\[64\]
*694 la_data_in_mprj\[65\]
*695 la_data_in_mprj\[66\]
*696 la_data_in_mprj\[67\]
*697 la_data_in_mprj\[68\]
*698 la_data_in_mprj\[69\]
*699 la_data_in_mprj\[6\]
*700 la_data_in_mprj\[70\]
*701 la_data_in_mprj\[71\]
*702 la_data_in_mprj\[72\]
*703 la_data_in_mprj\[73\]
*704 la_data_in_mprj\[74\]
*705 la_data_in_mprj\[75\]
*706 la_data_in_mprj\[76\]
*707 la_data_in_mprj\[77\]
*708 la_data_in_mprj\[78\]
*709 la_data_in_mprj\[79\]
*710 la_data_in_mprj\[7\]
*711 la_data_in_mprj\[80\]
*712 la_data_in_mprj\[81\]
*713 la_data_in_mprj\[82\]
*714 la_data_in_mprj\[83\]
*715 la_data_in_mprj\[84\]
*716 la_data_in_mprj\[85\]
*717 la_data_in_mprj\[86\]
*718 la_data_in_mprj\[87\]
*719 la_data_in_mprj\[88\]
*720 la_data_in_mprj\[89\]
*721 la_data_in_mprj\[8\]
*722 la_data_in_mprj\[90\]
*723 la_data_in_mprj\[91\]
*724 la_data_in_mprj\[92\]
*725 la_data_in_mprj\[93\]
*726 la_data_in_mprj\[94\]
*727 la_data_in_mprj\[95\]
*728 la_data_in_mprj\[96\]
*729 la_data_in_mprj\[97\]
*730 la_data_in_mprj\[98\]
*731 la_data_in_mprj\[99\]
*732 la_data_in_mprj\[9\]
*733 la_data_in_user\[0\]
*734 la_data_in_user\[100\]
*735 la_data_in_user\[101\]
*736 la_data_in_user\[102\]
*737 la_data_in_user\[103\]
*738 la_data_in_user\[104\]
*739 la_data_in_user\[105\]
*740 la_data_in_user\[106\]
*741 la_data_in_user\[107\]
*742 la_data_in_user\[108\]
*743 la_data_in_user\[109\]
*744 la_data_in_user\[10\]
*745 la_data_in_user\[110\]
*746 la_data_in_user\[111\]
*747 la_data_in_user\[112\]
*748 la_data_in_user\[113\]
*749 la_data_in_user\[114\]
*750 la_data_in_user\[115\]
*751 la_data_in_user\[116\]
*752 la_data_in_user\[117\]
*753 la_data_in_user\[118\]
*754 la_data_in_user\[119\]
*755 la_data_in_user\[11\]
*756 la_data_in_user\[120\]
*757 la_data_in_user\[121\]
*758 la_data_in_user\[122\]
*759 la_data_in_user\[123\]
*760 la_data_in_user\[124\]
*761 la_data_in_user\[125\]
*762 la_data_in_user\[126\]
*763 la_data_in_user\[127\]
*764 la_data_in_user\[12\]
*765 la_data_in_user\[13\]
*766 la_data_in_user\[14\]
*767 la_data_in_user\[15\]
*768 la_data_in_user\[16\]
*769 la_data_in_user\[17\]
*770 la_data_in_user\[18\]
*771 la_data_in_user\[19\]
*772 la_data_in_user\[1\]
*773 la_data_in_user\[20\]
*774 la_data_in_user\[21\]
*775 la_data_in_user\[22\]
*776 la_data_in_user\[23\]
*777 la_data_in_user\[24\]
*778 la_data_in_user\[25\]
*779 la_data_in_user\[26\]
*780 la_data_in_user\[27\]
*781 la_data_in_user\[28\]
*782 la_data_in_user\[29\]
*783 la_data_in_user\[2\]
*784 la_data_in_user\[30\]
*785 la_data_in_user\[31\]
*786 la_data_in_user\[32\]
*787 la_data_in_user\[33\]
*788 la_data_in_user\[34\]
*789 la_data_in_user\[35\]
*790 la_data_in_user\[36\]
*791 la_data_in_user\[37\]
*792 la_data_in_user\[38\]
*793 la_data_in_user\[39\]
*794 la_data_in_user\[3\]
*795 la_data_in_user\[40\]
*796 la_data_in_user\[41\]
*797 la_data_in_user\[42\]
*798 la_data_in_user\[43\]
*799 la_data_in_user\[44\]
*800 la_data_in_user\[45\]
*801 la_data_in_user\[46\]
*802 la_data_in_user\[47\]
*803 la_data_in_user\[48\]
*804 la_data_in_user\[49\]
*805 la_data_in_user\[4\]
*806 la_data_in_user\[50\]
*807 la_data_in_user\[51\]
*808 la_data_in_user\[52\]
*809 la_data_in_user\[53\]
*810 la_data_in_user\[54\]
*811 la_data_in_user\[55\]
*812 la_data_in_user\[56\]
*813 la_data_in_user\[57\]
*814 la_data_in_user\[58\]
*815 la_data_in_user\[59\]
*816 la_data_in_user\[5\]
*817 la_data_in_user\[60\]
*818 la_data_in_user\[61\]
*819 la_data_in_user\[62\]
*820 la_data_in_user\[63\]
*821 la_data_in_user\[64\]
*822 la_data_in_user\[65\]
*823 la_data_in_user\[66\]
*824 la_data_in_user\[67\]
*825 la_data_in_user\[68\]
*826 la_data_in_user\[69\]
*827 la_data_in_user\[6\]
*828 la_data_in_user\[70\]
*829 la_data_in_user\[71\]
*830 la_data_in_user\[72\]
*831 la_data_in_user\[73\]
*832 la_data_in_user\[74\]
*833 la_data_in_user\[75\]
*834 la_data_in_user\[76\]
*835 la_data_in_user\[77\]
*836 la_data_in_user\[78\]
*837 la_data_in_user\[79\]
*838 la_data_in_user\[7\]
*839 la_data_in_user\[80\]
*840 la_data_in_user\[81\]
*841 la_data_in_user\[82\]
*842 la_data_in_user\[83\]
*843 la_data_in_user\[84\]
*844 la_data_in_user\[85\]
*845 la_data_in_user\[86\]
*846 la_data_in_user\[87\]
*847 la_data_in_user\[88\]
*848 la_data_in_user\[89\]
*849 la_data_in_user\[8\]
*850 la_data_in_user\[90\]
*851 la_data_in_user\[91\]
*852 la_data_in_user\[92\]
*853 la_data_in_user\[93\]
*854 la_data_in_user\[94\]
*855 la_data_in_user\[95\]
*856 la_data_in_user\[96\]
*857 la_data_in_user\[97\]
*858 la_data_in_user\[98\]
*859 la_data_in_user\[99\]
*860 la_data_in_user\[9\]
*861 la_data_out_mprj\[0\]
*862 la_data_out_mprj\[100\]
*863 la_data_out_mprj\[101\]
*864 la_data_out_mprj\[102\]
*865 la_data_out_mprj\[103\]
*866 la_data_out_mprj\[104\]
*867 la_data_out_mprj\[105\]
*868 la_data_out_mprj\[106\]
*869 la_data_out_mprj\[107\]
*870 la_data_out_mprj\[108\]
*871 la_data_out_mprj\[109\]
*872 la_data_out_mprj\[10\]
*873 la_data_out_mprj\[110\]
*874 la_data_out_mprj\[111\]
*875 la_data_out_mprj\[112\]
*876 la_data_out_mprj\[113\]
*877 la_data_out_mprj\[114\]
*878 la_data_out_mprj\[115\]
*879 la_data_out_mprj\[116\]
*880 la_data_out_mprj\[117\]
*881 la_data_out_mprj\[118\]
*882 la_data_out_mprj\[119\]
*883 la_data_out_mprj\[11\]
*884 la_data_out_mprj\[120\]
*885 la_data_out_mprj\[121\]
*886 la_data_out_mprj\[122\]
*887 la_data_out_mprj\[123\]
*888 la_data_out_mprj\[124\]
*889 la_data_out_mprj\[125\]
*890 la_data_out_mprj\[126\]
*891 la_data_out_mprj\[127\]
*892 la_data_out_mprj\[12\]
*893 la_data_out_mprj\[13\]
*894 la_data_out_mprj\[14\]
*895 la_data_out_mprj\[15\]
*896 la_data_out_mprj\[16\]
*897 la_data_out_mprj\[17\]
*898 la_data_out_mprj\[18\]
*899 la_data_out_mprj\[19\]
*900 la_data_out_mprj\[1\]
*901 la_data_out_mprj\[20\]
*902 la_data_out_mprj\[21\]
*903 la_data_out_mprj\[22\]
*904 la_data_out_mprj\[23\]
*905 la_data_out_mprj\[24\]
*906 la_data_out_mprj\[25\]
*907 la_data_out_mprj\[26\]
*908 la_data_out_mprj\[27\]
*909 la_data_out_mprj\[28\]
*910 la_data_out_mprj\[29\]
*911 la_data_out_mprj\[2\]
*912 la_data_out_mprj\[30\]
*913 la_data_out_mprj\[31\]
*914 la_data_out_mprj\[32\]
*915 la_data_out_mprj\[33\]
*916 la_data_out_mprj\[34\]
*917 la_data_out_mprj\[35\]
*918 la_data_out_mprj\[36\]
*919 la_data_out_mprj\[37\]
*920 la_data_out_mprj\[38\]
*921 la_data_out_mprj\[39\]
*922 la_data_out_mprj\[3\]
*923 la_data_out_mprj\[40\]
*924 la_data_out_mprj\[41\]
*925 la_data_out_mprj\[42\]
*926 la_data_out_mprj\[43\]
*927 la_data_out_mprj\[44\]
*928 la_data_out_mprj\[45\]
*929 la_data_out_mprj\[46\]
*930 la_data_out_mprj\[47\]
*931 la_data_out_mprj\[48\]
*932 la_data_out_mprj\[49\]
*933 la_data_out_mprj\[4\]
*934 la_data_out_mprj\[50\]
*935 la_data_out_mprj\[51\]
*936 la_data_out_mprj\[52\]
*937 la_data_out_mprj\[53\]
*938 la_data_out_mprj\[54\]
*939 la_data_out_mprj\[55\]
*940 la_data_out_mprj\[56\]
*941 la_data_out_mprj\[57\]
*942 la_data_out_mprj\[58\]
*943 la_data_out_mprj\[59\]
*944 la_data_out_mprj\[5\]
*945 la_data_out_mprj\[60\]
*946 la_data_out_mprj\[61\]
*947 la_data_out_mprj\[62\]
*948 la_data_out_mprj\[63\]
*949 la_data_out_mprj\[64\]
*950 la_data_out_mprj\[65\]
*951 la_data_out_mprj\[66\]
*952 la_data_out_mprj\[67\]
*953 la_data_out_mprj\[68\]
*954 la_data_out_mprj\[69\]
*955 la_data_out_mprj\[6\]
*956 la_data_out_mprj\[70\]
*957 la_data_out_mprj\[71\]
*958 la_data_out_mprj\[72\]
*959 la_data_out_mprj\[73\]
*960 la_data_out_mprj\[74\]
*961 la_data_out_mprj\[75\]
*962 la_data_out_mprj\[76\]
*963 la_data_out_mprj\[77\]
*964 la_data_out_mprj\[78\]
*965 la_data_out_mprj\[79\]
*966 la_data_out_mprj\[7\]
*967 la_data_out_mprj\[80\]
*968 la_data_out_mprj\[81\]
*969 la_data_out_mprj\[82\]
*970 la_data_out_mprj\[83\]
*971 la_data_out_mprj\[84\]
*972 la_data_out_mprj\[85\]
*973 la_data_out_mprj\[86\]
*974 la_data_out_mprj\[87\]
*975 la_data_out_mprj\[88\]
*976 la_data_out_mprj\[89\]
*977 la_data_out_mprj\[8\]
*978 la_data_out_mprj\[90\]
*979 la_data_out_mprj\[91\]
*980 la_data_out_mprj\[92\]
*981 la_data_out_mprj\[93\]
*982 la_data_out_mprj\[94\]
*983 la_data_out_mprj\[95\]
*984 la_data_out_mprj\[96\]
*985 la_data_out_mprj\[97\]
*986 la_data_out_mprj\[98\]
*987 la_data_out_mprj\[99\]
*988 la_data_out_mprj\[9\]
*989 la_data_out_user\[0\]
*990 la_data_out_user\[100\]
*991 la_data_out_user\[101\]
*992 la_data_out_user\[102\]
*993 la_data_out_user\[103\]
*994 la_data_out_user\[104\]
*995 la_data_out_user\[105\]
*996 la_data_out_user\[106\]
*997 la_data_out_user\[107\]
*998 la_data_out_user\[108\]
*999 la_data_out_user\[109\]
*1000 la_data_out_user\[10\]
*1001 la_data_out_user\[110\]
*1002 la_data_out_user\[111\]
*1003 la_data_out_user\[112\]
*1004 la_data_out_user\[113\]
*1005 la_data_out_user\[114\]
*1006 la_data_out_user\[115\]
*1007 la_data_out_user\[116\]
*1008 la_data_out_user\[117\]
*1009 la_data_out_user\[118\]
*1010 la_data_out_user\[119\]
*1011 la_data_out_user\[11\]
*1012 la_data_out_user\[120\]
*1013 la_data_out_user\[121\]
*1014 la_data_out_user\[122\]
*1015 la_data_out_user\[123\]
*1016 la_data_out_user\[124\]
*1017 la_data_out_user\[125\]
*1018 la_data_out_user\[126\]
*1019 la_data_out_user\[127\]
*1020 la_data_out_user\[12\]
*1021 la_data_out_user\[13\]
*1022 la_data_out_user\[14\]
*1023 la_data_out_user\[15\]
*1024 la_data_out_user\[16\]
*1025 la_data_out_user\[17\]
*1026 la_data_out_user\[18\]
*1027 la_data_out_user\[19\]
*1028 la_data_out_user\[1\]
*1029 la_data_out_user\[20\]
*1030 la_data_out_user\[21\]
*1031 la_data_out_user\[22\]
*1032 la_data_out_user\[23\]
*1033 la_data_out_user\[24\]
*1034 la_data_out_user\[25\]
*1035 la_data_out_user\[26\]
*1036 la_data_out_user\[27\]
*1037 la_data_out_user\[28\]
*1038 la_data_out_user\[29\]
*1039 la_data_out_user\[2\]
*1040 la_data_out_user\[30\]
*1041 la_data_out_user\[31\]
*1042 la_data_out_user\[32\]
*1043 la_data_out_user\[33\]
*1044 la_data_out_user\[34\]
*1045 la_data_out_user\[35\]
*1046 la_data_out_user\[36\]
*1047 la_data_out_user\[37\]
*1048 la_data_out_user\[38\]
*1049 la_data_out_user\[39\]
*1050 la_data_out_user\[3\]
*1051 la_data_out_user\[40\]
*1052 la_data_out_user\[41\]
*1053 la_data_out_user\[42\]
*1054 la_data_out_user\[43\]
*1055 la_data_out_user\[44\]
*1056 la_data_out_user\[45\]
*1057 la_data_out_user\[46\]
*1058 la_data_out_user\[47\]
*1059 la_data_out_user\[48\]
*1060 la_data_out_user\[49\]
*1061 la_data_out_user\[4\]
*1062 la_data_out_user\[50\]
*1063 la_data_out_user\[51\]
*1064 la_data_out_user\[52\]
*1065 la_data_out_user\[53\]
*1066 la_data_out_user\[54\]
*1067 la_data_out_user\[55\]
*1068 la_data_out_user\[56\]
*1069 la_data_out_user\[57\]
*1070 la_data_out_user\[58\]
*1071 la_data_out_user\[59\]
*1072 la_data_out_user\[5\]
*1073 la_data_out_user\[60\]
*1074 la_data_out_user\[61\]
*1075 la_data_out_user\[62\]
*1076 la_data_out_user\[63\]
*1077 la_data_out_user\[64\]
*1078 la_data_out_user\[65\]
*1079 la_data_out_user\[66\]
*1080 la_data_out_user\[67\]
*1081 la_data_out_user\[68\]
*1082 la_data_out_user\[69\]
*1083 la_data_out_user\[6\]
*1084 la_data_out_user\[70\]
*1085 la_data_out_user\[71\]
*1086 la_data_out_user\[72\]
*1087 la_data_out_user\[73\]
*1088 la_data_out_user\[74\]
*1089 la_data_out_user\[75\]
*1090 la_data_out_user\[76\]
*1091 la_data_out_user\[77\]
*1092 la_data_out_user\[78\]
*1093 la_data_out_user\[79\]
*1094 la_data_out_user\[7\]
*1095 la_data_out_user\[80\]
*1096 la_data_out_user\[81\]
*1097 la_data_out_user\[82\]
*1098 la_data_out_user\[83\]
*1099 la_data_out_user\[84\]
*1100 la_data_out_user\[85\]
*1101 la_data_out_user\[86\]
*1102 la_data_out_user\[87\]
*1103 la_data_out_user\[88\]
*1104 la_data_out_user\[89\]
*1105 la_data_out_user\[8\]
*1106 la_data_out_user\[90\]
*1107 la_data_out_user\[91\]
*1108 la_data_out_user\[92\]
*1109 la_data_out_user\[93\]
*1110 la_data_out_user\[94\]
*1111 la_data_out_user\[95\]
*1112 la_data_out_user\[96\]
*1113 la_data_out_user\[97\]
*1114 la_data_out_user\[98\]
*1115 la_data_out_user\[99\]
*1116 la_data_out_user\[9\]
*1117 la_iena_mprj\[0\]
*1118 la_iena_mprj\[100\]
*1119 la_iena_mprj\[101\]
*1120 la_iena_mprj\[102\]
*1121 la_iena_mprj\[103\]
*1122 la_iena_mprj\[104\]
*1123 la_iena_mprj\[105\]
*1124 la_iena_mprj\[106\]
*1125 la_iena_mprj\[107\]
*1126 la_iena_mprj\[108\]
*1127 la_iena_mprj\[109\]
*1128 la_iena_mprj\[10\]
*1129 la_iena_mprj\[110\]
*1130 la_iena_mprj\[111\]
*1131 la_iena_mprj\[112\]
*1132 la_iena_mprj\[113\]
*1133 la_iena_mprj\[114\]
*1134 la_iena_mprj\[115\]
*1135 la_iena_mprj\[116\]
*1136 la_iena_mprj\[117\]
*1137 la_iena_mprj\[118\]
*1138 la_iena_mprj\[119\]
*1139 la_iena_mprj\[11\]
*1140 la_iena_mprj\[120\]
*1141 la_iena_mprj\[121\]
*1142 la_iena_mprj\[122\]
*1143 la_iena_mprj\[123\]
*1144 la_iena_mprj\[124\]
*1145 la_iena_mprj\[125\]
*1146 la_iena_mprj\[126\]
*1147 la_iena_mprj\[127\]
*1148 la_iena_mprj\[12\]
*1149 la_iena_mprj\[13\]
*1150 la_iena_mprj\[14\]
*1151 la_iena_mprj\[15\]
*1152 la_iena_mprj\[16\]
*1153 la_iena_mprj\[17\]
*1154 la_iena_mprj\[18\]
*1155 la_iena_mprj\[19\]
*1156 la_iena_mprj\[1\]
*1157 la_iena_mprj\[20\]
*1158 la_iena_mprj\[21\]
*1159 la_iena_mprj\[22\]
*1160 la_iena_mprj\[23\]