*SPEF "ieee 1481-1999"
*DESIGN "buff8x20"
*DATE "11:11:11 Fri 11 11, 1111"
*VENDOR "OpenRCX"
*PROGRAM "Parallel Extraction"
*VERSION "1.0"
*DESIGN_FLOW "NAME_SCOPE LOCAL" "PIN_CAP NONE"
*DIVIDER /
*DELIMITER :
*BUS_DELIMITER []
*T_UNIT 1 NS
*C_UNIT 1 PF
*R_UNIT 1 OHM
*L_UNIT 1 HENRY

*NAME_MAP
*3 in[0]
*4 in[10]
*5 in[11]
*6 in[12]
*7 in[13]
*8 in[14]
*9 in[15]
*10 in[16]
*11 in[17]
*12 in[18]
*13 in[19]
*14 in[1]
*15 in[2]
*16 in[3]
*17 in[4]
*18 in[5]
*19 in[6]
*20 in[7]
*21 in[8]
*22 in[9]
*23 out[0]
*24 out[10]
*25 out[11]
*26 out[12]
*27 out[13]
*28 out[14]
*29 out[15]
*30 out[16]
*31 out[17]
*32 out[18]
*33 out[19]
*34 out[1]
*35 out[2]
*36 out[3]
*37 out[4]
*38 out[5]
*39 out[6]
*40 out[7]
*41 out[8]
*42 out[9]
*43 BUF\[0\]
*44 BUF\[10\]
*45 BUF\[11\]
*46 BUF\[12\]
*47 BUF\[13\]
*48 BUF\[14\]
*49 BUF\[15\]
*50 BUF\[16\]
*51 BUF\[17\]
*52 BUF\[18\]
*53 BUF\[19\]
*54 BUF\[1\]
*55 BUF\[2\]
*56 BUF\[3\]
*57 BUF\[4\]
*58 BUF\[5\]
*59 BUF\[6\]
*60 BUF\[7\]
*61 BUF\[8\]
*62 BUF\[9\]
*63 FILLER_0_0
*64 FILLER_0_22
*65 FILLER_0_29
*66 FILLER_0_41
*67 FILLER_0_53
*68 FILLER_0_57
*69 FILLER_0_71
*70 FILLER_0_77
*71 FILLER_0_8
*72 FILLER_1_0
*73 FILLER_1_14
*74 FILLER_1_30
*75 FILLER_1_54
*76 FILLER_1_57
*77 FILLER_1_71
*78 FILLER_1_77
*79 FILLER_2_0
*80 FILLER_2_20
*81 FILLER_2_29
*82 FILLER_2_41
*83 FILLER_2_53
*84 FILLER_2_57
*85 FILLER_2_70
*86 FILLER_3_0
*87 FILLER_3_20
*88 FILLER_3_32
*89 FILLER_3_40
*90 FILLER_3_53
*91 FILLER_3_57
*92 FILLER_3_71
*93 FILLER_3_77
*94 FILLER_4_0
*95 FILLER_4_23
*96 FILLER_4_27
*97 FILLER_4_29
*98 FILLER_4_45
*99 FILLER_4_61
*100 FILLER_4_73
*101 FILLER_4_77
*102 FILLER_4_8
*103 FILLER_5_0
*104 FILLER_5_22
*105 FILLER_5_38
*106 FILLER_5_54
*107 FILLER_5_57
*108 FILLER_5_71
*109 FILLER_5_77
*110 FILLER_5_8
*111 FILLER_6_0
*112 FILLER_6_12
*113 FILLER_6_24
*114 FILLER_6_29
*115 FILLER_6_43
*116 FILLER_6_55
*117 FILLER_6_57
*118 FILLER_6_71
*119 FILLER_6_77
*120 TAP_0
*121 TAP_1
*122 TAP_2
*123 TAP_3
*124 TAP_4
*125 TAP_5
*126 TAP_6
*127 TAP_7
*128 TAP_8

*PORTS
in[0] I
in[10] I
in[11] I
in[12] I
in[13] I
in[14] I
in[15] I
in[16] I
in[17] I
in[18] I
in[19] I
in[1] I
in[2] I
in[3] I
in[4] I
in[5] I
in[6] I
in[7] I
in[8] I
in[9] I
out[0] O
out[10] O
out[11] O
out[12] O
out[13] O
out[14] O
out[15] O
out[16] O
out[17] O
out[18] O
out[19] O
out[1] O
out[2] O
out[3] O
out[4] O
out[5] O
out[6] O
out[7] O
out[8] O
out[9] O

*D_NET *3 0.00140181
*CONN
*P in[0] I
*I *43:A I *D sky130_fd_sc_hd__buf_8
*CAP
1 in[0] 0.000616433
2 *43:A 0
3 *3:8 0.000616433
4 *3:8 *54:A 0
5 *3:8 *23:9 0.000168943
6 *3:8 *34:8 0
*RES
1 in[0] *3:8 27.18 
2 *3:8 *43:A 23 
*END

*D_NET *4 0.00203461
*CONN
*P in[10] I
*I *44:A I *D sky130_fd_sc_hd__buf_8
*CAP
1 in[10] 0.000902633
2 *44:A 0
3 *4:8 0.000902633
4 *4:8 *5:12 3.13739e-05
5 *4:8 *22:12 0
6 *4:8 *24:9 0.000197974
*RES
1 in[10] *4:8 33.2907 
2 *4:8 *44:A 23 
*END

*D_NET *5 0.00140936
*CONN
*P in[11] I
*I *45:A I *D sky130_fd_sc_hd__buf_8
*CAP
1 in[11] 0.00067049
2 *45:A 0
3 *5:12 0.00067049
4 *5:12 out[11] 3.70094e-05
5 *5:12 *6:11 0
6 *4:8 *5:12 3.13739e-05
*RES
1 in[11] *5:12 28.2571 
2 *5:12 *45:A 23 
*END

*D_NET *6 0.00213473
*CONN
*P in[12] I
*I *46:A I *D sky130_fd_sc_hd__buf_8
*CAP
1 in[12] 0.000815778
2 *46:A 0
3 *6:11 0.000815778
4 *6:11 out[11] 0
5 *6:11 *7:8 0.000503178
6 *5:12 *6:11 0
*RES
1 in[12] *6:11 33.7464 
2 *6:11 *46:A 23 
*END

*D_NET *7 0.00263331
*CONN
*P in[13] I
*I *47:A I *D sky130_fd_sc_hd__buf_8
*CAP
1 in[13] 0.000894543
2 *47:A 0
3 *7:8 0.000894543
4 *7:8 out[14] 0
5 *7:8 *48:A 0.000170813
6 *7:8 *27:14 0.000170236
7 *6:11 *7:8 0.000503178
*RES
1 in[13] *7:8 35.5071 
2 *7:8 *47:A 23 
*END

*D_NET *8 0.00111864
*CONN
*P in[14] I
*I *48:A I *D sky130_fd_sc_hd__buf_8
*CAP
1 in[14] 0.000401665
2 *48:A 0.000401665
3 *48:A *49:A 0.000144501
4 *7:8 *48:A 0.000170813
*RES
1 in[14] *48:A 47.8186 
*END

*D_NET *9 0.0015947
*CONN
*P in[15] I
*I *49:A I *D sky130_fd_sc_hd__buf_8
*CAP
1 in[15] 0.000452948
2 *49:A 0.000452948
3 *49:A out[14] 1.01436e-05
4 *49:A out[15] 1.12487e-05
5 *49:A *50:A 0.000119613
6 *49:A *29:9 0.000403293
7 *48:A *49:A 0.000144501
*RES
1 in[15] *49:A 49.5793 
*END

*D_NET *10 0.00121618
*CONN
*P in[16] I
*I *50:A I *D sky130_fd_sc_hd__buf_8
*CAP
1 in[16] 0.000418662
2 *50:A 0.000418662
3 *50:A out[15] 0.00025307
4 *50:A out[17] 0
5 *50:A *51:A 0
6 *50:A *30:9 6.17437e-06
7 *49:A *50:A 0.000119613
*RES
1 in[16] *50:A 47.7979 
*END

*D_NET *11 0.000351132
*CONN
*P in[17] I
*I *51:A I *D sky130_fd_sc_hd__buf_8
*CAP
1 in[17] 0.000157349
2 *51:A 0.000157349
3 *51:A out[17] 3.64337e-05
4 *51:A *12:8 0
5 *50:A *51:A 0
*RES
1 in[17] *51:A 41.0657 
*END

*D_NET *12 0.00170106
*CONN
*P in[18] I
*I *52:A I *D sky130_fd_sc_hd__buf_8
*CAP
1 in[18] 0.000448867
2 *52:A 0
3 *12:8 0.000448867
4 *12:8 out[17] 0.000231362
5 *12:8 *13:12 0.000440403
6 *12:8 *32:10 0.000131562
7 *51:A *12:8 0
*RES
1 in[18] *12:8 28.4436 
2 *12:8 *52:A 23 
*END

*D_NET *13 0.00284828
*CONN
*P in[19] I
*I *53:A I *D sky130_fd_sc_hd__buf_8
*CAP
1 in[19] 0.000938912
2 *53:A 0
3 *13:12 0.000938912
4 *13:12 out[18] 0.000285089
5 *13:12 out[19] 0.000224605
6 *13:12 *32:10 2.03556e-05
7 *12:8 *13:12 0.000440403
*RES
1 in[19] *13:12 38.7386 
2 *13:12 *53:A 23 
*END

*D_NET *14 0.000766945
*CONN
*P in[1] I
*I *54:A I *D sky130_fd_sc_hd__buf_8
*CAP
1 in[1] 0.000320513
2 *54:A 0.000320513
3 *54:A *15:12 8.89109e-05
4 *54:A *34:8 3.70094e-05
5 *3:8 *54:A 0
*RES
1 in[1] *54:A 44.8564 
*END

*D_NET *15 0.00174249
*CONN
*P in[2] I
*I *55:A I *D sky130_fd_sc_hd__buf_8
*CAP
1 in[2] 0.000594267
2 *55:A 0
3 *15:12 0.000594267
4 *15:12 out[3] 0
5 *15:12 *56:A 0
6 *15:12 *34:8 0.00046504
7 *15:12 *35:10 0
8 *15:12 *36:10 0
9 *54:A *15:12 8.89109e-05
*RES
1 in[2] *15:12 28.7336 
2 *15:12 *55:A 23 
*END

*D_NET *16 0.000414867
*CONN
*P in[3] I
*I *56:A I *D sky130_fd_sc_hd__buf_8
*CAP
1 in[3] 0.00017312
2 *56:A 0.00017312
3 *56:A *17:14 5.84843e-05
4 *56:A *36:10 1.01436e-05
5 *15:12 *56:A 0
*RES
1 in[3] *56:A 41.6871 
*END

*D_NET *17 0.00189775
*CONN
*P in[4] I
*I *57:A I *D sky130_fd_sc_hd__buf_8
*CAP
1 in[4] 0.00073036
2 *57:A 0
3 *17:14 0.00073036
4 *17:14 out[3] 0.000101921
5 *17:14 *58:A 0
6 *17:14 *36:10 0.000276626
7 *56:A *17:14 5.84843e-05
*RES
1 in[4] *17:14 31.82 
2 *17:14 *57:A 23 
*END

*D_NET *18 0.000876848
*CONN
*P in[5] I
*I *58:A I *D sky130_fd_sc_hd__buf_8
*CAP
1 in[5] 0.00035272
2 *58:A 0.00035272
3 *58:A out[5] 3.70094e-05
4 *58:A *19:8 0.000134398
5 *17:14 *58:A 0
*RES
1 in[5] *58:A 46.0993 
*END

*D_NET *19 0.00233799
*CONN
*P in[6] I
*I *59:A I *D sky130_fd_sc_hd__buf_8
*CAP
1 in[6] 0.000792846
2 *59:A 0
3 *19:8 0.000792846
4 *19:8 out[5] 0.000443149
5 *19:8 out[6] 0.000174747
6 *19:8 *20:11 0
7 *58:A *19:8 0.000134398
*RES
1 in[6] *19:8 34.5543 
2 *19:8 *59:A 23 
*END

*D_NET *20 0.00247677
*CONN
*P in[7] I
*I *60:A I *D sky130_fd_sc_hd__buf_8
*CAP
1 in[7] 0.000881027
2 *60:A 0
3 *20:11 0.000881027
4 *20:11 out[6] 0
5 *20:11 out[8] 0.000224204
6 *20:11 *21:8 0.00049051
7 *19:8 *20:11 0
*RES
1 in[7] *20:11 36.2114 
2 *20:11 *60:A 23 
*END

*D_NET *21 0.0021869
*CONN
*P in[8] I
*I *61:A I *D sky130_fd_sc_hd__buf_8
*CAP
1 in[8] 0.000613764
2 *61:A 0
3 *21:8 0.000613764
4 *21:8 out[8] 3.92407e-05
5 *21:8 out[9] 6.63698e-05
6 *21:8 *22:12 0.000363248
7 *20:11 *21:8 0.00049051
*RES
1 in[8] *21:8 33.6014 
2 *21:8 *61:A 23 
*END

*D_NET *22 0.00166542
*CONN
*P in[9] I
*I *62:A I *D sky130_fd_sc_hd__buf_8
*CAP
1 in[9] 0.000648
2 *62:A 0
3 *22:12 0.000648
4 *22:12 out[9] 6.17437e-06
5 *4:8 *22:12 0
6 *21:8 *22:12 0.000363248
*RES
1 in[9] *22:12 30.7221 
2 *22:12 *62:A 23 
*END

*D_NET *23 0.00225408
*CONN
*P out[0] O
*I *43:X O *D sky130_fd_sc_hd__buf_8
*CAP
1 out[0] 0.000720528
2 *43:X 0.000322042
3 *23:9 0.00104257
4 out[0] out[1] 0
5 out[0] *34:8 0
6 *3:8 *23:9 0.000168943
*RES
1 *43:X *23:9 43.8829 
2 *23:9 out[0] 13.9821 
*END

*D_NET *24 0.00177942
*CONN
*P out[10] O
*I *44:X O *D sky130_fd_sc_hd__buf_8
*CAP
1 out[10] 0.00043769
2 *44:X 0.000353033
3 *24:9 0.000790723
4 out[10] out[11] 0
5 out[10] out[9] 0
6 *4:8 *24:9 0.000197974
*RES
1 *44:X *24:9 44.3593 
2 *24:9 out[10] 8.34786 
*END

*D_NET *25 0.00154693
*CONN
*P out[11] O
*I *45:X O *D sky130_fd_sc_hd__buf_8
*CAP
1 out[11] 0.000515201
2 *45:X 0.000515201
3 out[11] out[12] 0.000479519
4 out[10] out[11] 0
5 *5:12 out[11] 3.70094e-05
6 *6:11 out[11] 0
*RES
1 *45:X out[11] 49.8693 
*END

*D_NET *26 0.00112723
*CONN
*P out[12] O
*I *46:X O *D sky130_fd_sc_hd__buf_8
*CAP
1 out[12] 0.000323857
2 *46:X 0.000323857
3 out[12] out[13] 0
4 out[12] out[14] 0
5 out[11] out[12] 0.000479519
*RES
1 *46:X out[12] 47.6529 
*END

*D_NET *27 0.0013334
*CONN
*P out[13] O
*I *47:X O *D sky130_fd_sc_hd__buf_8
*CAP
1 out[13] 0.000257933
2 *47:X 0.000323649
3 *27:14 0.000581581
4 out[13] out[14] 0
5 *27:14 out[14] 0
6 out[12] out[13] 0
7 *7:8 *27:14 0.000170236
*RES
1 *47:X *27:14 45.0739 
2 *27:14 out[13] 5.0025 
*END

*D_NET *28 0.00283776
*CONN
*P out[14] O
*I *48:X O *D sky130_fd_sc_hd__buf_8
*CAP
1 out[14] 0.000844305
2 *48:X 0
3 *28:5 0.000844305
4 out[14] out[15] 0.001139
5 out[12] out[14] 0
6 out[13] out[14] 0
7 *49:A out[14] 1.01436e-05
8 *7:8 out[14] 0
9 *27:14 out[14] 0
*RES
1 *48:X *28:5 38 
2 *28:5 out[14] 22.6407 
*END

*D_NET *29 0.00474227
*CONN
*P out[15] O
*I *49:X O *D sky130_fd_sc_hd__buf_8
*CAP
1 out[15] 0.000496415
2 *49:X 0.000436481
3 *29:9 0.000932896
4 out[15] out[16] 0.00106986
5 out[15] out[17] 0
6 out[14] out[15] 0.001139
7 *49:A out[15] 1.12487e-05
8 *49:A *29:9 0.000403293
9 *50:A out[15] 0.00025307
*RES
1 *49:X *29:9 45.7886 
2 *29:9 out[15] 21.2736 
*END

*D_NET *30 0.0022015
*CONN
*P out[16] O
*I *50:X O *D sky130_fd_sc_hd__buf_8
*CAP
1 out[16] 0.000487324
2 *50:X 7.54103e-05
3 *30:9 0.000562734
4 out[16] out[17] 0
5 out[15] out[16] 0.00106986
6 *50:A *30:9 6.17437e-06
*RES
1 *50:X *30:9 39.1186 
2 *30:9 out[16] 13.9821 
*END

*D_NET *31 0.00294319
*CONN
*P out[17] O
*I *51:X O *D sky130_fd_sc_hd__buf_8
*CAP
1 out[17] 0.000881245
2 *51:X 0.000304811
3 *31:7 0.00118606
4 out[17] out[18] 0.00025225
5 out[17] *32:10 5.10276e-05
6 out[15] out[17] 0
7 out[16] out[17] 0
8 *50:A out[17] 0
9 *51:A out[17] 3.64337e-05
10 *12:8 out[17] 0.000231362
*RES
1 *51:X *31:7 42.4329 
2 *31:7 out[17] 21.4393 
*END

*D_NET *32 0.0019499
*CONN
*P out[18] O
*I *52:X O *D sky130_fd_sc_hd__buf_8
*CAP
1 out[18] 0.000355278
2 *52:X 0.000249531
3 *32:10 0.000604809
4 out[18] out[19] 0
5 out[17] out[18] 0.00025225
6 out[17] *32:10 5.10276e-05
7 *12:8 *32:10 0.000131562
8 *13:12 out[18] 0.000285089
9 *13:12 *32:10 2.03556e-05
*RES
1 *52:X *32:10 43.0025 
2 *32:10 out[18] 10.6368 
*END

*D_NET *33 0.00110337
*CONN
*P out[19] O
*I *53:X O *D sky130_fd_sc_hd__buf_8
*CAP
1 out[19] 0.000439381
2 *53:X 0.000439381
3 out[18] out[19] 0
4 *13:12 out[19] 0.000224605
*RES
1 *53:X out[19] 46.4514 
*END

*D_NET *34 0.00235053
*CONN
*P out[1] O
*I *54:X O *D sky130_fd_sc_hd__buf_8
*CAP
1 out[1] 0.000327131
2 *54:X 0.000359343
3 *34:8 0.000686474
4 out[1] out[2] 0.000303623
5 *34:8 out[2] 0.000171906
6 *34:8 *35:10 0
7 out[0] out[1] 0
8 out[0] *34:8 0
9 *54:A *34:8 3.70094e-05
10 *3:8 *34:8 0
11 *15:12 *34:8 0.00046504
*RES
1 *54:X *34:8 47.7461 
2 *34:8 out[1] 8.52393 
*END

*D_NET *35 0.00191041
*CONN
*P out[2] O
*I *55:X O *D sky130_fd_sc_hd__buf_8
*CAP
1 out[2] 0.000471066
2 *55:X 0.000221308
3 *35:10 0.000692373
4 out[2] out[3] 0
5 *35:10 out[3] 5.01346e-05
6 out[1] out[2] 0.000303623
7 *15:12 *35:10 0
8 *34:8 out[2] 0.000171906
9 *34:8 *35:10 0
*RES
1 *55:X *35:10 42.0496 
2 *35:10 out[2] 11.8796 
*END

*D_NET *36 0.00273459
*CONN
*P out[3] O
*I *56:X O *D sky130_fd_sc_hd__buf_8
*CAP
1 out[3] 0.000606376
2 *56:X 0.0004722
3 *36:10 0.00107858
4 out[3] out[4] 0.000138614
5 out[3] out[5] 0
6 out[2] out[3] 0
7 *56:A *36:10 1.01436e-05
8 *15:12 out[3] 0
9 *15:12 *36:10 0
10 *17:14 out[3] 0.000101921
11 *17:14 *36:10 0.000276626
12 *35:10 out[3] 5.01346e-05
*RES
1 *56:X *36:10 48.1604 
2 *36:10 out[3] 13.4539 
*END

*D_NET *37 0.000962869
*CONN
*P out[4] O
*I *57:X O *D sky130_fd_sc_hd__buf_8
*CAP
1 out[4] 0.000412128
2 *57:X 0.000412128
3 out[4] out[5] 0
4 out[3] out[4] 0.000138614
*RES
1 *57:X out[4] 47.4664 
*END

*D_NET *38 0.00215414
*CONN
*P out[5] O
*I *58:X O *D sky130_fd_sc_hd__buf_8
*CAP
1 out[5] 0.00075927
2 *58:X 0
3 *38:5 0.00075927
4 out[5] out[6] 0.000155438
5 out[3] out[5] 0
6 out[4] out[5] 0
7 *58:A out[5] 3.70094e-05
8 *19:8 out[5] 0.000443149
*RES
1 *58:X *38:5 38 
2 *38:5 out[5] 18.7464 
*END

*D_NET *39 0.00129643
*CONN
*P out[6] O
*I *59:X O *D sky130_fd_sc_hd__buf_8
*CAP
1 out[6] 0.000483121
2 *59:X 0.000483121
3 out[6] out[7] 0
4 out[6] out[8] 0
5 out[5] out[6] 0.000155438
6 *19:8 out[6] 0.000174747
7 *20:11 out[6] 0
*RES
1 *59:X out[6] 48.4814 
*END

*D_NET *40 0.000788809
*CONN
*P out[7] O
*I *60:X O *D sky130_fd_sc_hd__buf_8
*CAP
1 out[7] 0.000357463
2 *60:X 0.000357463
3 out[7] out[8] 7.38837e-05
4 out[6] out[7] 0
*RES
1 *60:X out[7] 44.5043 
*END

*D_NET *41 0.000885193
*CONN
*P out[8] O
*I *61:X O *D sky130_fd_sc_hd__buf_8
*CAP
1 out[8] 0.000273932
2 *61:X 0.000273932
3 out[8] out[9] 0
4 out[6] out[8] 0
5 out[7] out[8] 7.38837e-05
6 *20:11 out[8] 0.000224204
7 *21:8 out[8] 3.92407e-05
*RES
1 *61:X out[8] 45.0014 
*END

*D_NET *42 0.00110556
*CONN
*P out[9] O
*I *62:X O *D sky130_fd_sc_hd__buf_8
*CAP
1 out[9] 0.00051651
2 *62:X 0.00051651
3 out[10] out[9] 0
4 out[8] out[9] 0
5 *21:8 out[9] 6.63698e-05
6 *22:12 out[9] 6.17437e-06
*RES
1 *62:X out[9] 48.2329 
*END
