* NGSPICE file created from caravel_openframe.ext - technology: sky130A

.subckt sky130_fd_io__com_ctl_ls_octl OUT_H_N OUT_H IN RST_H SET_H HLD_H_N VPB a_992_934#
+ VCC_IO a_181_1305# a_n17_1379#
X0 a_361_1391# a_181_1305# a_128_1391# a_n17_1379# sky130_fd_pr__nfet_05v0_nvt ad=0.14 pd=1.28 as=0.265 ps=2.53 w=1 l=0.9
X1 VCC_IO a_130_181# OUT_H VCC_IO sky130_fd_pr__pfet_g5v0d10v5 ad=0.42 pd=3.28 as=0.795 ps=6.53 w=3 l=0.6
X2 a_128_1391# a_181_1305# a_361_1391# a_n17_1379# sky130_fd_pr__nfet_05v0_nvt ad=0.265 pd=2.53 as=0.14 ps=1.28 w=1 l=0.9
X3 a_n17_1379# a_634_829# a_128_1391# a_n17_1379# sky130_fd_pr__nfet_01v8_lvt ad=0.14 pd=1.28 as=0.14 ps=1.28 w=1 l=0.15
X4 a_128_1391# a_634_829# a_n17_1379# a_n17_1379# sky130_fd_pr__nfet_01v8_lvt ad=0.14 pd=1.28 as=0.28 ps=2.56 w=1 l=0.15
X5 a_361_1391# HLD_H_N a_130_181# a_n17_1379# sky130_fd_pr__nfet_g5v0d10v5 ad=0.795 pd=6.53 as=0.795 ps=6.53 w=3 l=0.6
X6 a_634_829# a_992_934# a_181_1305# VPB sky130_fd_pr__pfet_01v8_hvt ad=0.265 pd=2.53 as=0.14 ps=1.28 w=1 l=0.25
X7 a_361_1391# a_181_1305# a_128_1391# a_n17_1379# sky130_fd_pr__nfet_05v0_nvt ad=0.14 pd=1.28 as=0.265 ps=2.53 w=1 l=0.9
X8 a_n17_1379# a_634_829# a_128_1391# a_n17_1379# sky130_fd_pr__nfet_01v8_lvt ad=0.14 pd=1.28 as=0.14 ps=1.28 w=1 l=0.15
X9 OUT_H_N a_65_861# VCC_IO VCC_IO sky130_fd_pr__pfet_g5v0d10v5 ad=0.795 pd=6.53 as=0.42 ps=3.28 w=3 l=0.6
X10 a_n17_1379# a_992_934# a_724_1391# a_n17_1379# sky130_fd_pr__nfet_01v8_lvt ad=0.14 pd=1.28 as=0.14 ps=1.28 w=1 l=0.15
X11 a_128_1391# a_634_829# a_n17_1379# a_n17_1379# sky130_fd_pr__nfet_01v8_lvt ad=0.14 pd=1.28 as=0.14 ps=1.28 w=1 l=0.15
X12 a_724_1391# a_992_934# a_n17_1379# a_n17_1379# sky130_fd_pr__nfet_01v8_lvt ad=0.14 pd=1.28 as=0.14 ps=1.28 w=1 l=0.15
X13 a_65_861# HLD_H_N a_957_1391# a_n17_1379# sky130_fd_pr__nfet_g5v0d10v5 ad=0.42 pd=3.28 as=0.795 ps=6.53 w=3 l=0.6
X14 OUT_H a_130_181# a_n17_1379# a_n17_1379# sky130_fd_pr__nfet_g5v0d10v5 ad=0.28 pd=2.56 as=0.14 ps=1.28 w=1 l=0.6
X15 a_n17_1379# a_992_934# a_724_1391# a_n17_1379# sky130_fd_pr__nfet_01v8_lvt ad=0.265 pd=2.53 as=0.14 ps=1.28 w=1 l=0.15
X16 a_65_861# a_130_181# VCC_IO VCC_IO sky130_fd_pr__pfet_g5v0d10v5 ad=0.199 pd=2.03 as=0.199 ps=2.03 w=0.75 l=0.5
X17 a_724_1391# a_992_934# a_n17_1379# a_n17_1379# sky130_fd_pr__nfet_01v8_lvt ad=0.14 pd=1.28 as=0.14 ps=1.28 w=1 l=0.15
X18 a_n17_1379# a_65_861# a_130_181# a_n17_1379# sky130_fd_pr__nfet_g5v0d10v5 ad=0.105 pd=1.03 as=0.199 ps=2.03 w=0.75 l=1
X19 a_181_1305# IN a_992_934# VPB sky130_fd_pr__pfet_01v8_hvt ad=0.14 pd=1.28 as=0.265 ps=2.53 w=1 l=0.25
X20 a_957_1391# a_181_1305# a_724_1391# a_n17_1379# sky130_fd_pr__nfet_05v0_nvt ad=0.14 pd=1.28 as=0.265 ps=2.53 w=1 l=0.9
X21 a_n17_1379# IN a_992_934# a_n17_1379# sky130_fd_pr__nfet_01v8 ad=0.14 pd=1.28 as=0.28 ps=2.56 w=1 l=0.25
X22 a_n17_1379# a_65_861# OUT_H_N a_n17_1379# sky130_fd_pr__nfet_g5v0d10v5 ad=0.14 pd=1.28 as=0.28 ps=2.56 w=1 l=0.6
X23 a_130_181# a_65_861# VCC_IO VCC_IO sky130_fd_pr__pfet_g5v0d10v5 ad=0.199 pd=2.03 as=0.199 ps=2.03 w=0.75 l=0.5
X24 a_724_1391# a_181_1305# a_957_1391# a_n17_1379# sky130_fd_pr__nfet_05v0_nvt ad=0.265 pd=2.53 as=0.14 ps=1.28 w=1 l=0.9
X25 a_957_1391# a_181_1305# a_724_1391# a_n17_1379# sky130_fd_pr__nfet_05v0_nvt ad=0.14 pd=1.28 as=0.265 ps=2.53 w=1 l=0.9
X26 a_65_861# a_130_181# a_n17_1379# a_n17_1379# sky130_fd_pr__nfet_g5v0d10v5 ad=0.199 pd=2.03 as=0.105 ps=1.03 w=0.75 l=1
X27 a_634_829# a_992_934# a_n17_1379# a_n17_1379# sky130_fd_pr__nfet_01v8 ad=0.28 pd=2.56 as=0.14 ps=1.28 w=1 l=0.25
X28 a_130_181# SET_H a_n17_1379# a_n17_1379# sky130_fd_pr__nfet_g5v0d10v5 ad=0.795 pd=6.53 as=0.42 ps=3.28 w=3 l=0.6
X29 a_724_1391# a_181_1305# a_957_1391# a_n17_1379# sky130_fd_pr__nfet_05v0_nvt ad=0.265 pd=2.53 as=0.14 ps=1.28 w=1 l=0.9
X30 a_n17_1379# RST_H a_65_861# a_n17_1379# sky130_fd_pr__nfet_g5v0d10v5 ad=0.42 pd=3.28 as=0.42 ps=3.28 w=3 l=0.6
X31 a_128_1391# a_181_1305# a_361_1391# a_n17_1379# sky130_fd_pr__nfet_05v0_nvt ad=0.265 pd=2.53 as=0.14 ps=1.28 w=1 l=0.9
.ends

.subckt sky130_fd_io__gpiov2_octl DM_H[1] DM_H[0] DM_H[2] DM_H_N[0] DM_H_N[1] DM_H_N[2]
+ PUEN_2OR1_H PDEN_H_N[1] PDEN_H_N[0] SLOW SLOW_H a_n8755_2384# a_n9051_2020# w_n9346_2317#
+ a_n9227_2020# a_n9283_2046# a_5840_3586# m1_n8913_3102# VPWR a_n8875_2020# a_4338_3622#
+ a_3924_6676# a_n8931_2384# a_4514_3388# SLOW_H_N VCC_IO VGND a_5813_4576# HLD_I_H_N
+ OD_H
Xsky130_fd_io__com_ctl_ls_octl_0 SLOW_H_N SLOW_H SLOW OD_H VGND HLD_I_H_N VPWR m2_5755_2254#
+ VCC_IO VPWR VGND sky130_fd_io__com_ctl_ls_octl
X0 a_4667_4619# a_3966_4619# a_4491_4619# VCC_IO sky130_fd_pr__pfet_g5v0d10v5 ad=0.14 pd=1.28 as=0.14 ps=1.28 w=1 l=0.6
X1 a_5720_3560# a_5315_3924# VGND VGND sky130_fd_pr__nfet_g5v0d10v5 ad=0.185 pd=1.93 as=0.098 ps=0.98 w=0.7 l=0.6
X2 VCC_IO DM_H[2] a_3933_3414# VCC_IO sky130_fd_pr__pfet_g5v0d10v5 ad=0.14 pd=1.28 as=0.265 ps=2.53 w=1 l=0.6
X3 a_4282_3414# DM_H[2] VGND VGND sky130_fd_pr__nfet_g5v0d10v5 ad=0.098 pd=0.98 as=0.098 ps=0.98 w=0.7 l=0.6
X4 VCC_IO DM_H_N[0] a_4520_6066# VCC_IO sky130_fd_pr__pfet_g5v0d10v5 ad=0.265 pd=2.53 as=0.14 ps=1.28 w=1 l=0.6
X5 a_3871_7368# a_3924_6676# VCC_IO VCC_IO sky130_fd_pr__pfet_g5v0d10v5 ad=0.14 pd=1.28 as=0.265 ps=2.53 w=1 l=0.6
X6 a_n8755_2384# a_n9280_2384# a_n8755_2046# VGND sky130_fd_pr__nfet_g5v0d10v5 ad=0.185 pd=1.93 as=0.098 ps=0.98 w=0.7 l=0.6
X7 a_n9107_2384# a_n9227_2020# a_n9280_2384# w_n9346_2317# sky130_fd_pr__pfet_g5v0d10v5 ad=0.14 pd=1.28 as=0.265 ps=2.53 w=1 l=0.6
X8 a_4634_3414# a_4514_3388# a_4458_3414# VGND sky130_fd_pr__nfet_g5v0d10v5 ad=0.098 pd=0.98 as=0.098 ps=0.98 w=0.7 l=0.6
X9 a_4872_6702# DM_H_N[2] VCC_IO VCC_IO sky130_fd_pr__pfet_g5v0d10v5 ad=0.14 pd=1.28 as=0.14 ps=1.28 w=1 l=0.6
X10 VCC_IO DM_H[2] a_3966_4619# VCC_IO sky130_fd_pr__pfet_g5v0d10v5 ad=0.14 pd=1.28 as=0.265 ps=2.53 w=1 l=0.6
X11 a_4996_5728# a_4520_6066# PUEN_2OR1_H VGND sky130_fd_pr__nfet_g5v0d10v5 ad=0.098 pd=0.98 as=0.185 ps=1.93 w=0.7 l=0.6
X12 VCC_IO a_4347_7368# a_5651_5728# VCC_IO sky130_fd_pr__pfet_g5v0d10v5 ad=0.14 pd=1.28 as=0.265 ps=2.53 w=1 l=0.6
X13 VCC_IO a_5052_5702# PUEN_2OR1_H VCC_IO sky130_fd_pr__pfet_g5v0d10v5 ad=0.14 pd=1.28 as=0.14 ps=1.28 w=1 l=0.6
X14 a_5488_3924# DM_H_N[1] a_5315_3924# VCC_IO sky130_fd_pr__pfet_g5v0d10v5 ad=0.14 pd=1.28 as=0.265 ps=2.53 w=1 l=0.6
X15 a_5813_4576# a_5693_4550# VCC_IO VCC_IO sky130_fd_pr__pfet_g5v0d10v5 ad=0.14 pd=1.28 as=0.265 ps=2.53 w=1 l=0.6
X16 VCC_IO a_5720_3560# a_5840_3586# VCC_IO sky130_fd_pr__pfet_g5v0d10v5 ad=0.14 pd=1.28 as=0.14 ps=1.28 w=1 l=0.6
X17 VCC_IO DM_H[0] a_5052_5702# VCC_IO sky130_fd_pr__pfet_g5v0d10v5 ad=0.265 pd=2.53 as=0.14 ps=1.28 w=1 l=0.6
X18 a_4282_3816# DM_H[2] VCC_IO VCC_IO sky130_fd_pr__pfet_g5v0d10v5 ad=0.14 pd=1.28 as=0.14 ps=1.28 w=1 l=0.6
X19 VCC_IO DM_H_N[0] a_5175_7368# VCC_IO sky130_fd_pr__pfet_g5v0d10v5 ad=0.265 pd=2.53 as=0.14 ps=1.28 w=1 l=0.6
X20 a_4634_3816# a_3933_3414# a_4458_3414# VCC_IO sky130_fd_pr__pfet_g5v0d10v5 ad=0.14 pd=1.28 as=0.14 ps=1.28 w=1 l=0.6
X21 a_4491_4619# a_4371_4587# a_4315_4619# VCC_IO sky130_fd_pr__pfet_g5v0d10v5 ad=0.14 pd=1.28 as=0.14 ps=1.28 w=1 l=0.6
X22 a_5513_4576# a_3871_7368# VCC_IO VCC_IO sky130_fd_pr__pfet_g5v0d10v5 ad=0.265 pd=2.53 as=0.265 ps=2.53 w=1 l=0.6
X23 PDEN_H_N[1] a_5651_6702# VGND VGND sky130_fd_pr__nfet_g5v0d10v5 ad=0.098 pd=0.98 as=0.098 ps=0.98 w=0.7 l=0.6
X24 a_5315_3924# DM_H_N[1] VGND VGND sky130_fd_pr__nfet_g5v0d10v5 ad=0.098 pd=0.98 as=0.196 ps=1.96 w=0.7 l=0.6
X25 VCC_IO DM_H[1] a_4667_4619# VCC_IO sky130_fd_pr__pfet_g5v0d10v5 ad=0.14 pd=1.28 as=0.14 ps=1.28 w=1 l=0.6
X26 a_n8931_2384# a_n9051_2020# a_n9107_2384# w_n9346_2317# sky130_fd_pr__pfet_g5v0d10v5 ad=0.14 pd=1.28 as=0.14 ps=1.28 w=1 l=0.6
X27 a_4044_6066# DM_H_N[1] a_3871_6066# VCC_IO sky130_fd_pr__pfet_g5v0d10v5 ad=0.14 pd=1.28 as=0.265 ps=2.53 w=1 l=0.6
X28 a_n8755_2046# a_n8875_2020# a_n9283_2046# VGND sky130_fd_pr__nfet_g5v0d10v5 ad=0.098 pd=0.98 as=0.098 ps=0.98 w=0.7 l=0.6
X29 PDEN_H_N[0] a_5651_5728# VGND VGND sky130_fd_pr__nfet_g5v0d10v5 ad=0.098 pd=0.98 as=0.098 ps=0.98 w=0.7 l=0.6
X30 a_4520_6066# a_3871_6066# VCC_IO VCC_IO sky130_fd_pr__pfet_g5v0d10v5 ad=0.14 pd=1.28 as=0.265 ps=2.53 w=1 l=0.6
X31 a_4347_7368# DM_H[0] VCC_IO VCC_IO sky130_fd_pr__pfet_g5v0d10v5 ad=0.14 pd=1.28 as=0.265 ps=2.53 w=1 l=0.6
X32 a_n8931_2384# a_n9280_2384# a_n8755_2384# w_n9346_2317# sky130_fd_pr__pfet_g5v0d10v5 ad=0.265 pd=2.53 as=0.14 ps=1.28 w=1 l=0.6
X33 VCC_IO a_4458_3414# a_5488_3924# VCC_IO sky130_fd_pr__pfet_g5v0d10v5 ad=0.14 pd=1.28 as=0.14 ps=1.28 w=1 l=0.6
X34 a_5513_4576# a_3871_7368# VGND VGND sky130_fd_pr__nfet_g5v0d10v5 ad=0.185 pd=1.93 as=0.185 ps=1.93 w=0.7 l=0.6
X35 a_4371_4587# DM_H[1] VCC_IO VCC_IO sky130_fd_pr__pfet_g5v0d10v5 ad=0.265 pd=2.53 as=0.14 ps=1.28 w=1 l=0.6
X36 VGND a_4458_3414# a_5315_3924# VGND sky130_fd_pr__nfet_g5v0d10v5 ad=0.098 pd=0.98 as=0.098 ps=0.98 w=0.7 l=0.6
X37 VCC_IO a_5693_4550# a_5813_4576# VCC_IO sky130_fd_pr__pfet_g5v0d10v5 ad=0.14 pd=1.28 as=0.14 ps=1.28 w=1 l=0.6
X38 a_4338_3622# DM_H[0] VGND VGND sky130_fd_pr__nfet_g5v0d10v5 ad=0.185 pd=1.93 as=0.098 ps=0.98 w=0.7 l=0.6
X39 PUEN_2OR1_H a_4520_6066# VCC_IO VCC_IO sky130_fd_pr__pfet_g5v0d10v5 ad=0.14 pd=1.28 as=0.265 ps=2.53 w=1 l=0.6
X40 VGND PUEN_2OR1_H a_4044_7368# VGND sky130_fd_pr__nfet_g5v0d10v5 ad=0.185 pd=1.93 as=0.098 ps=0.98 w=0.7 l=0.6
X41 PDEN_H_N[1] a_5651_6702# VCC_IO VCC_IO sky130_fd_pr__pfet_g5v0d10v5 ad=0.14 pd=1.28 as=0.14 ps=1.28 w=1 l=0.6
X42 a_5348_7368# a_4872_6702# a_5175_7368# VGND sky130_fd_pr__nfet_g5v0d10v5 ad=0.098 pd=0.98 as=0.185 ps=1.93 w=0.7 l=0.6
X43 VCC_IO DM_H_N[0] a_4520_6066# VCC_IO sky130_fd_pr__pfet_g5v0d10v5 ad=0.265 pd=2.53 as=0.14 ps=1.28 w=1 l=0.6
X44 VGND a_5651_6702# PDEN_H_N[1] VGND sky130_fd_pr__nfet_g5v0d10v5 ad=0.185 pd=1.93 as=0.098 ps=0.98 w=0.7 l=0.6
X45 VCC_IO DM_H[1] a_4347_7368# VCC_IO sky130_fd_pr__pfet_g5v0d10v5 ad=0.14 pd=1.28 as=0.14 ps=1.28 w=1 l=0.6
X46 VCC_IO DM_H_N[1] a_4872_6702# VCC_IO sky130_fd_pr__pfet_g5v0d10v5 ad=0.265 pd=2.53 as=0.14 ps=1.28 w=1 l=0.6
X47 a_n8755_2384# a_n8875_2020# a_n8931_2384# w_n9346_2317# sky130_fd_pr__pfet_g5v0d10v5 ad=0.14 pd=1.28 as=0.14 ps=1.28 w=1 l=0.6
X48 a_5840_3586# a_5720_3560# VCC_IO VCC_IO sky130_fd_pr__pfet_g5v0d10v5 ad=0.14 pd=1.28 as=0.14 ps=1.28 w=1 l=0.6
X49 a_4458_3414# a_4338_3622# a_4282_3816# VCC_IO sky130_fd_pr__pfet_g5v0d10v5 ad=0.14 pd=1.28 as=0.14 ps=1.28 w=1 l=0.6
X50 a_4315_5349# DM_H[2] VGND VGND sky130_fd_pr__nfet_g5v0d10v5 ad=0.098 pd=0.98 as=0.098 ps=0.98 w=0.7 l=0.6
X51 VCC_IO a_5175_7368# a_5651_6702# VCC_IO sky130_fd_pr__pfet_g5v0d10v5 ad=0.14 pd=1.28 as=0.265 ps=2.53 w=1 l=0.6
X52 VCC_IO a_4347_7368# a_5651_5728# VCC_IO sky130_fd_pr__pfet_g5v0d10v5 ad=0.14 pd=1.28 as=0.265 ps=2.53 w=1 l=0.6
X53 a_4338_3622# DM_H[0] VCC_IO VCC_IO sky130_fd_pr__pfet_g5v0d10v5 ad=0.265 pd=2.53 as=0.14 ps=1.28 w=1 l=0.6
X54 VGND a_5693_4550# a_5813_4576# VGND sky130_fd_pr__nfet_g5v0d10v5 ad=0.098 pd=0.98 as=0.098 ps=0.98 w=0.7 l=0.6
X55 a_4667_5349# a_4371_4587# a_4491_4619# VGND sky130_fd_pr__nfet_g5v0d10v5 ad=0.098 pd=0.98 as=0.098 ps=0.98 w=0.7 l=0.6
X56 VGND DM_H_N[2] a_3871_6066# VGND sky130_fd_pr__nfet_g5v0d10v5 ad=0.185 pd=1.93 as=0.098 ps=0.98 w=0.7 l=0.6
X57 a_5813_4576# a_5693_4550# VCC_IO VCC_IO sky130_fd_pr__pfet_g5v0d10v5 ad=0.14 pd=1.28 as=0.265 ps=2.53 w=1 l=0.6
X58 a_5840_3586# a_5720_3560# VGND VGND sky130_fd_pr__nfet_g5v0d10v5 ad=0.098 pd=0.98 as=0.098 ps=0.98 w=0.7 l=0.6
X59 a_5348_5728# a_4491_4619# VGND VGND sky130_fd_pr__nfet_g5v0d10v5 ad=0.098 pd=0.98 as=0.098 ps=0.98 w=0.7 l=0.6
X60 VGND a_5651_5728# PDEN_H_N[0] VGND sky130_fd_pr__nfet_g5v0d10v5 ad=0.185 pd=1.93 as=0.098 ps=0.98 w=0.7 l=0.6
X61 VGND a_3933_3414# a_4634_3414# VGND sky130_fd_pr__nfet_g5v0d10v5 ad=0.098 pd=0.98 as=0.098 ps=0.98 w=0.7 l=0.6
X62 a_4315_4619# DM_H[2] VCC_IO VCC_IO sky130_fd_pr__pfet_g5v0d10v5 ad=0.14 pd=1.28 as=0.14 ps=1.28 w=1 l=0.6
X63 a_5693_4550# a_5513_4576# VCC_IO VCC_IO sky130_fd_pr__pfet_g5v0d10v5 ad=0.265 pd=2.53 as=0.14 ps=1.28 w=1 l=0.6
X64 a_4667_4619# a_3966_4619# a_4491_4619# VCC_IO sky130_fd_pr__pfet_g5v0d10v5 ad=0.14 pd=1.28 as=0.14 ps=1.28 w=1 l=0.6
X65 PDEN_H_N[0] a_5651_5728# VCC_IO VCC_IO sky130_fd_pr__pfet_g5v0d10v5 ad=0.14 pd=1.28 as=0.14 ps=1.28 w=1 l=0.6
X66 a_4044_6066# DM_H_N[1] a_3871_6066# VCC_IO sky130_fd_pr__pfet_g5v0d10v5 ad=0.14 pd=1.28 as=0.265 ps=2.53 w=1 l=0.6
X67 VGND DM_H_N[0] a_5348_7368# VGND sky130_fd_pr__nfet_g5v0d10v5 ad=0.185 pd=1.93 as=0.098 ps=0.98 w=0.7 l=0.6
X68 a_3871_7368# a_3924_6676# VCC_IO VCC_IO sky130_fd_pr__pfet_g5v0d10v5 ad=0.14 pd=1.28 as=0.265 ps=2.53 w=1 l=0.6
X69 a_4872_6702# DM_H_N[2] VCC_IO VCC_IO sky130_fd_pr__pfet_g5v0d10v5 ad=0.14 pd=1.28 as=0.14 ps=1.28 w=1 l=0.6
X70 VCC_IO a_5720_3560# a_5840_3586# VCC_IO sky130_fd_pr__pfet_g5v0d10v5 ad=0.14 pd=1.28 as=0.14 ps=1.28 w=1 l=0.6
X71 a_4282_3816# DM_H[2] VCC_IO VCC_IO sky130_fd_pr__pfet_g5v0d10v5 ad=0.14 pd=1.28 as=0.14 ps=1.28 w=1 l=0.6
X72 VCC_IO DM_H[0] a_4634_3816# VCC_IO sky130_fd_pr__pfet_g5v0d10v5 ad=0.14 pd=1.28 as=0.14 ps=1.28 w=1 l=0.6
X73 VCC_IO PUEN_2OR1_H a_3871_7368# VCC_IO sky130_fd_pr__pfet_g5v0d10v5 ad=0.265 pd=2.53 as=0.14 ps=1.28 w=1 l=0.6
X74 a_4634_3816# a_3933_3414# a_4458_3414# VCC_IO sky130_fd_pr__pfet_g5v0d10v5 ad=0.14 pd=1.28 as=0.14 ps=1.28 w=1 l=0.6
X75 a_5813_4576# a_5693_4550# VGND VGND sky130_fd_pr__nfet_g5v0d10v5 ad=0.098 pd=0.98 as=0.185 ps=1.93 w=0.7 l=0.6
X76 a_4491_4619# DM_H[1] a_4315_5349# VGND sky130_fd_pr__nfet_g5v0d10v5 ad=0.098 pd=0.98 as=0.098 ps=0.98 w=0.7 l=0.6
X77 a_n9280_2384# a_n9227_2020# a_n9283_2046# VGND sky130_fd_pr__nfet_g5v0d10v5 ad=0.098 pd=0.98 as=0.196 ps=1.96 w=0.7 l=0.6
X78 VGND a_3966_4619# a_4667_5349# VGND sky130_fd_pr__nfet_g5v0d10v5 ad=0.098 pd=0.98 as=0.098 ps=0.98 w=0.7 l=0.6
X79 VGND a_5052_5702# a_4996_5728# VGND sky130_fd_pr__nfet_g5v0d10v5 ad=0.098 pd=0.98 as=0.098 ps=0.98 w=0.7 l=0.6
X80 a_5175_7368# a_4872_6702# VCC_IO VCC_IO sky130_fd_pr__pfet_g5v0d10v5 ad=0.14 pd=1.28 as=0.265 ps=2.53 w=1 l=0.6
X81 VGND a_5720_3560# a_5840_3586# VGND sky130_fd_pr__nfet_g5v0d10v5 ad=0.098 pd=0.98 as=0.098 ps=0.98 w=0.7 l=0.6
X82 VCC_IO a_5651_6702# PDEN_H_N[1] VCC_IO sky130_fd_pr__pfet_g5v0d10v5 ad=0.265 pd=2.53 as=0.14 ps=1.28 w=1 l=0.6
X83 a_n8931_2384# a_n9280_2384# a_n8755_2384# w_n9346_2317# sky130_fd_pr__pfet_g5v0d10v5 ad=0.265 pd=2.53 as=0.14 ps=1.28 w=1 l=0.6
X84 a_5052_5702# DM_H[0] a_5348_5728# VGND sky130_fd_pr__nfet_g5v0d10v5 ad=0.185 pd=1.93 as=0.098 ps=0.98 w=0.7 l=0.6
X85 VGND DM_H[2] a_3933_3414# VGND sky130_fd_pr__nfet_g5v0d10v5 ad=0.098 pd=0.98 as=0.185 ps=1.93 w=0.7 l=0.6
X86 a_4491_4619# a_4371_4587# a_4315_4619# VCC_IO sky130_fd_pr__pfet_g5v0d10v5 ad=0.14 pd=1.28 as=0.14 ps=1.28 w=1 l=0.6
X87 a_5720_3560# a_5315_3924# VCC_IO VCC_IO sky130_fd_pr__pfet_g5v0d10v5 ad=0.265 pd=2.53 as=0.14 ps=1.28 w=1 l=0.6
X88 VCC_IO DM_H[1] a_4667_4619# VCC_IO sky130_fd_pr__pfet_g5v0d10v5 ad=0.14 pd=1.28 as=0.14 ps=1.28 w=1 l=0.6
X89 a_4520_7368# DM_H[0] a_4347_7368# VGND sky130_fd_pr__nfet_g5v0d10v5 ad=0.098 pd=0.98 as=0.185 ps=1.93 w=0.7 l=0.6
X90 VCC_IO DM_H[2] a_3966_4619# VCC_IO sky130_fd_pr__pfet_g5v0d10v5 ad=0.14 pd=1.28 as=0.265 ps=2.53 w=1 l=0.6
X91 PUEN_2OR1_H a_4520_6066# VCC_IO VCC_IO sky130_fd_pr__pfet_g5v0d10v5 ad=0.14 pd=1.28 as=0.265 ps=2.53 w=1 l=0.6
X92 VCC_IO DM_H[2] a_3933_3414# VCC_IO sky130_fd_pr__pfet_g5v0d10v5 ad=0.14 pd=1.28 as=0.265 ps=2.53 w=1 l=0.6
X93 VCC_IO DM_H_N[2] a_4044_6066# VCC_IO sky130_fd_pr__pfet_g5v0d10v5 ad=0.265 pd=2.53 as=0.14 ps=1.28 w=1 l=0.6
X94 a_n9283_2046# a_n9051_2020# a_n9280_2384# VGND sky130_fd_pr__nfet_g5v0d10v5 ad=0.098 pd=0.98 as=0.098 ps=0.98 w=0.7 l=0.6
X95 a_4371_4587# DM_H[1] VGND VGND sky130_fd_pr__nfet_g5v0d10v5 ad=0.185 pd=1.93 as=0.098 ps=0.98 w=0.7 l=0.6
X96 a_5052_5702# a_4491_4619# VCC_IO VCC_IO sky130_fd_pr__pfet_g5v0d10v5 ad=0.14 pd=1.28 as=0.14 ps=1.28 w=1 l=0.6
X97 a_4520_5728# a_3871_6066# VGND VGND sky130_fd_pr__nfet_g5v0d10v5 ad=0.098 pd=0.98 as=0.185 ps=1.93 w=0.7 l=0.6
X98 VCC_IO a_5651_5728# PDEN_H_N[0] VCC_IO sky130_fd_pr__pfet_g5v0d10v5 ad=0.265 pd=2.53 as=0.14 ps=1.28 w=1 l=0.6
X99 VCC_IO DM_H_N[0] a_5175_7368# VCC_IO sky130_fd_pr__pfet_g5v0d10v5 ad=0.265 pd=2.53 as=0.14 ps=1.28 w=1 l=0.6
X100 a_n8755_2384# a_n8875_2020# a_n8931_2384# w_n9346_2317# sky130_fd_pr__pfet_g5v0d10v5 ad=0.14 pd=1.28 as=0.14 ps=1.28 w=1 l=0.6
X101 a_5488_3924# DM_H_N[1] a_5315_3924# VCC_IO sky130_fd_pr__pfet_g5v0d10v5 ad=0.14 pd=1.28 as=0.265 ps=2.53 w=1 l=0.6
X102 a_4371_4587# DM_H[1] VCC_IO VCC_IO sky130_fd_pr__pfet_g5v0d10v5 ad=0.265 pd=2.53 as=0.14 ps=1.28 w=1 l=0.6
X103 a_n9107_2384# a_n9227_2020# a_n9280_2384# w_n9346_2317# sky130_fd_pr__pfet_g5v0d10v5 ad=0.14 pd=1.28 as=0.265 ps=2.53 w=1 l=0.6
X104 VGND DM_H[1] a_4520_7368# VGND sky130_fd_pr__nfet_g5v0d10v5 ad=0.098 pd=0.98 as=0.098 ps=0.98 w=0.7 l=0.6
X105 a_4872_6702# DM_H_N[1] a_4872_7368# VGND sky130_fd_pr__nfet_g5v0d10v5 ad=0.185 pd=1.93 as=0.098 ps=0.98 w=0.7 l=0.6
X106 VGND a_5175_7368# a_5651_6702# VGND sky130_fd_pr__nfet_g5v0d10v5 ad=0.098 pd=0.98 as=0.185 ps=1.93 w=0.7 l=0.6
X107 a_5693_4550# a_5513_4576# VCC_IO VCC_IO sky130_fd_pr__pfet_g5v0d10v5 ad=0.265 pd=2.53 as=0.14 ps=1.28 w=1 l=0.6
X108 PDEN_H_N[0] a_5651_5728# VCC_IO VCC_IO sky130_fd_pr__pfet_g5v0d10v5 ad=0.14 pd=1.28 as=0.14 ps=1.28 w=1 l=0.6
X109 PDEN_H_N[1] a_5651_6702# VCC_IO VCC_IO sky130_fd_pr__pfet_g5v0d10v5 ad=0.14 pd=1.28 as=0.14 ps=1.28 w=1 l=0.6
X110 a_4338_3622# DM_H[0] VCC_IO VCC_IO sky130_fd_pr__pfet_g5v0d10v5 ad=0.265 pd=2.53 as=0.14 ps=1.28 w=1 l=0.6
X111 VCC_IO a_5052_5702# PUEN_2OR1_H VCC_IO sky130_fd_pr__pfet_g5v0d10v5 ad=0.14 pd=1.28 as=0.14 ps=1.28 w=1 l=0.6
X112 a_4347_7368# DM_H[0] VCC_IO VCC_IO sky130_fd_pr__pfet_g5v0d10v5 ad=0.14 pd=1.28 as=0.265 ps=2.53 w=1 l=0.6
X113 a_4520_6066# DM_H_N[0] a_4520_5728# VGND sky130_fd_pr__nfet_g5v0d10v5 ad=0.185 pd=1.93 as=0.098 ps=0.98 w=0.7 l=0.6
X114 VCC_IO DM_H[0] a_5052_5702# VCC_IO sky130_fd_pr__pfet_g5v0d10v5 ad=0.265 pd=2.53 as=0.14 ps=1.28 w=1 l=0.6
X115 a_5513_4576# a_3871_7368# VCC_IO VCC_IO sky130_fd_pr__pfet_g5v0d10v5 ad=0.265 pd=2.53 as=0.265 ps=2.53 w=1 l=0.6
X116 VGND a_4347_7368# a_5651_5728# VGND sky130_fd_pr__nfet_g5v0d10v5 ad=0.098 pd=0.98 as=0.185 ps=1.93 w=0.7 l=0.6
X117 VCC_IO a_4458_3414# a_5488_3924# VCC_IO sky130_fd_pr__pfet_g5v0d10v5 ad=0.14 pd=1.28 as=0.14 ps=1.28 w=1 l=0.6
X118 a_n8931_2384# a_n9051_2020# a_n9107_2384# w_n9346_2317# sky130_fd_pr__pfet_g5v0d10v5 ad=0.14 pd=1.28 as=0.14 ps=1.28 w=1 l=0.6
X119 a_4044_7368# a_3924_6676# a_3871_7368# VGND sky130_fd_pr__nfet_g5v0d10v5 ad=0.098 pd=0.98 as=0.185 ps=1.93 w=0.7 l=0.6
X120 a_4872_7368# DM_H_N[2] VGND VGND sky130_fd_pr__nfet_g5v0d10v5 ad=0.098 pd=0.98 as=0.098 ps=0.98 w=0.7 l=0.6
X121 a_5693_4550# a_5513_4576# VGND VGND sky130_fd_pr__nfet_g5v0d10v5 ad=0.185 pd=1.93 as=0.098 ps=0.98 w=0.7 l=0.6
X122 VCC_IO DM_H[0] a_4634_3816# VCC_IO sky130_fd_pr__pfet_g5v0d10v5 ad=0.14 pd=1.28 as=0.14 ps=1.28 w=1 l=0.6
X123 a_4458_3414# DM_H[0] a_4282_3414# VGND sky130_fd_pr__nfet_g5v0d10v5 ad=0.098 pd=0.98 as=0.098 ps=0.98 w=0.7 l=0.6
X124 a_4520_6066# a_3871_6066# VCC_IO VCC_IO sky130_fd_pr__pfet_g5v0d10v5 ad=0.14 pd=1.28 as=0.265 ps=2.53 w=1 l=0.6
X125 VCC_IO DM_H[1] a_4347_7368# VCC_IO sky130_fd_pr__pfet_g5v0d10v5 ad=0.14 pd=1.28 as=0.14 ps=1.28 w=1 l=0.6
X126 a_3871_6066# DM_H_N[1] VGND VGND sky130_fd_pr__nfet_g5v0d10v5 ad=0.098 pd=0.98 as=0.196 ps=1.96 w=0.7 l=0.6
X127 VCC_IO DM_H_N[1] a_4872_6702# VCC_IO sky130_fd_pr__pfet_g5v0d10v5 ad=0.265 pd=2.53 as=0.14 ps=1.28 w=1 l=0.6
X128 VCC_IO a_5175_7368# a_5651_6702# VCC_IO sky130_fd_pr__pfet_g5v0d10v5 ad=0.14 pd=1.28 as=0.265 ps=2.53 w=1 l=0.6
X129 VCC_IO DM_H_N[2] a_4044_6066# VCC_IO sky130_fd_pr__pfet_g5v0d10v5 ad=0.265 pd=2.53 as=0.14 ps=1.28 w=1 l=0.6
X130 VCC_IO PUEN_2OR1_H a_3871_7368# VCC_IO sky130_fd_pr__pfet_g5v0d10v5 ad=0.265 pd=2.53 as=0.14 ps=1.28 w=1 l=0.6
X131 a_5052_5702# a_4491_4619# VCC_IO VCC_IO sky130_fd_pr__pfet_g5v0d10v5 ad=0.14 pd=1.28 as=0.14 ps=1.28 w=1 l=0.6
X132 a_5720_3560# a_5315_3924# VCC_IO VCC_IO sky130_fd_pr__pfet_g5v0d10v5 ad=0.265 pd=2.53 as=0.14 ps=1.28 w=1 l=0.6
X133 a_5840_3586# a_5720_3560# VCC_IO VCC_IO sky130_fd_pr__pfet_g5v0d10v5 ad=0.14 pd=1.28 as=0.14 ps=1.28 w=1 l=0.6
X134 VCC_IO a_5693_4550# a_5813_4576# VCC_IO sky130_fd_pr__pfet_g5v0d10v5 ad=0.14 pd=1.28 as=0.14 ps=1.28 w=1 l=0.6
X135 a_5175_7368# a_4872_6702# VCC_IO VCC_IO sky130_fd_pr__pfet_g5v0d10v5 ad=0.14 pd=1.28 as=0.265 ps=2.53 w=1 l=0.6
X136 VCC_IO a_5651_5728# PDEN_H_N[0] VCC_IO sky130_fd_pr__pfet_g5v0d10v5 ad=0.265 pd=2.53 as=0.14 ps=1.28 w=1 l=0.6
X137 a_4458_3414# a_4338_3622# a_4282_3816# VCC_IO sky130_fd_pr__pfet_g5v0d10v5 ad=0.14 pd=1.28 as=0.14 ps=1.28 w=1 l=0.6
X138 VCC_IO a_5651_6702# PDEN_H_N[1] VCC_IO sky130_fd_pr__pfet_g5v0d10v5 ad=0.265 pd=2.53 as=0.14 ps=1.28 w=1 l=0.6
X139 a_4315_4619# DM_H[2] VCC_IO VCC_IO sky130_fd_pr__pfet_g5v0d10v5 ad=0.14 pd=1.28 as=0.14 ps=1.28 w=1 l=0.6
X140 VGND DM_H[2] a_3966_4619# VGND sky130_fd_pr__nfet_g5v0d10v5 ad=0.098 pd=0.98 as=0.185 ps=1.93 w=0.7 l=0.6
.ends

.subckt sky130_fd_io__gpio_dat_ls_1v2 IN OUT_H_N RST_H SET_H HLD_H_N OUT_H VPWR_KA
+ VGND VCC_IO
X0 a_2251_36# a_2251_2228# VGND VGND sky130_fd_pr__nfet_01v8 ad=0.14 pd=1.28 as=0.265 ps=2.53 w=1 l=0.25
X1 a_28_633# SET_H VGND VGND sky130_fd_pr__nfet_g5v0d10v5 ad=0.795 pd=6.53 as=0.42 ps=3.28 w=3 l=0.6
X2 a_1720_1202# HLD_H_N a_28_14# VGND sky130_fd_pr__nfet_g5v0d10v5 ad=1.33 pd=10.5 as=1.33 ps=10.5 w=5 l=0.5
X3 a_1251_128# VPWR_KA a_1484_128# VGND sky130_fd_pr__nfet_05v0_nvt ad=0.265 pd=2.53 as=0.14 ps=1.28 w=1 l=0.9
X4 a_2080_128# VPWR_KA a_1720_1202# VGND sky130_fd_pr__nfet_05v0_nvt ad=0.265 pd=2.53 as=0.265 ps=2.53 w=1 l=0.9
X5 a_2080_128# a_2251_2228# VGND VGND sky130_fd_pr__nfet_01v8_lvt ad=0.14 pd=1.28 as=0.265 ps=2.53 w=1 l=0.15
X6 a_1484_128# VPWR_KA a_1251_128# VGND sky130_fd_pr__nfet_05v0_nvt ad=0.14 pd=1.28 as=0.265 ps=2.53 w=1 l=0.9
X7 VGND a_2251_2228# a_2080_128# VGND sky130_fd_pr__nfet_01v8_lvt ad=0.265 pd=2.53 as=0.14 ps=1.28 w=1 l=0.15
X8 a_1484_128# a_2251_36# VGND VGND sky130_fd_pr__nfet_01v8_lvt ad=0.14 pd=1.28 as=0.265 ps=2.53 w=1 l=0.15
X9 VGND a_2251_36# a_1484_128# VGND sky130_fd_pr__nfet_01v8_lvt ad=0.265 pd=2.53 as=0.14 ps=1.28 w=1 l=0.15
X10 VPWR_KA a_2251_2228# a_2251_36# VPWR_KA sky130_fd_pr__pfet_01v8_hvt ad=0.42 pd=3.28 as=0.795 ps=6.53 w=3 l=0.25
X11 a_2080_128# VPWR_KA a_1720_1202# VGND sky130_fd_pr__nfet_05v0_nvt ad=0.265 pd=2.53 as=0.265 ps=2.53 w=1 l=0.9
X12 a_2080_128# VPWR_KA a_1720_1202# VGND sky130_fd_pr__nfet_05v0_nvt ad=0.265 pd=2.53 as=0.265 ps=2.53 w=1 l=0.9
X13 a_1251_128# VPWR_KA a_1484_128# VGND sky130_fd_pr__nfet_05v0_nvt ad=0.265 pd=2.53 as=0.14 ps=1.28 w=1 l=0.9
X14 a_28_633# a_28_14# VCC_IO VCC_IO sky130_fd_pr__pfet_g5v0d10v5 ad=0.265 pd=2.53 as=0.265 ps=2.53 w=1 l=0.5
X15 VGND IN a_2251_2228# VGND sky130_fd_pr__nfet_01v8 ad=0.265 pd=2.53 as=0.14 ps=1.28 w=1 l=0.25
X16 OUT_H a_28_633# VCC_IO VCC_IO sky130_fd_pr__pfet_g5v0d10v5 ad=0.795 pd=6.53 as=0.42 ps=3.28 w=3 l=0.5
X17 a_1484_128# a_2251_36# VGND VGND sky130_fd_pr__nfet_01v8_lvt ad=0.14 pd=1.28 as=0.265 ps=2.53 w=1 l=0.15
X18 a_2080_128# a_2251_2228# VGND VGND sky130_fd_pr__nfet_01v8_lvt ad=0.14 pd=1.28 as=0.265 ps=2.53 w=1 l=0.15
X19 a_2080_128# VPWR_KA a_1720_1202# VGND sky130_fd_pr__nfet_05v0_nvt ad=0.265 pd=2.53 as=0.265 ps=2.53 w=1 l=0.9
X20 a_1251_128# VPWR_KA a_1484_128# VGND sky130_fd_pr__nfet_05v0_nvt ad=0.265 pd=2.53 as=0.14 ps=1.28 w=1 l=0.9
X21 a_1484_128# VPWR_KA a_1251_128# VGND sky130_fd_pr__nfet_05v0_nvt ad=0.14 pd=1.28 as=0.265 ps=2.53 w=1 l=0.9
X22 VGND a_2251_36# a_1484_128# VGND sky130_fd_pr__nfet_01v8_lvt ad=0.265 pd=2.53 as=0.14 ps=1.28 w=1 l=0.15
X23 a_1484_128# a_2251_36# VGND VGND sky130_fd_pr__nfet_01v8_lvt ad=0.14 pd=1.28 as=0.265 ps=2.53 w=1 l=0.15
X24 VGND a_28_633# OUT_H VGND sky130_fd_pr__nfet_g5v0d10v5 ad=0.14 pd=1.28 as=0.28 ps=2.56 w=1 l=0.6
X25 VGND a_2251_2228# a_2080_128# VGND sky130_fd_pr__nfet_01v8_lvt ad=0.265 pd=2.53 as=0.14 ps=1.28 w=1 l=0.15
X26 a_2251_2228# IN VGND VGND sky130_fd_pr__nfet_01v8 ad=0.14 pd=1.28 as=0.14 ps=1.28 w=1 l=0.25
X27 a_2080_128# VPWR_KA a_1720_1202# VGND sky130_fd_pr__nfet_05v0_nvt ad=0.265 pd=2.53 as=0.265 ps=2.53 w=1 l=0.9
X28 a_1484_128# VPWR_KA a_1251_128# VGND sky130_fd_pr__nfet_05v0_nvt ad=0.14 pd=1.28 as=0.265 ps=2.53 w=1 l=0.9
X29 VGND a_2251_36# a_1484_128# VGND sky130_fd_pr__nfet_01v8_lvt ad=0.265 pd=2.53 as=0.14 ps=1.28 w=1 l=0.15
X30 a_2080_128# VPWR_KA a_1720_1202# VGND sky130_fd_pr__nfet_05v0_nvt ad=0.265 pd=2.53 as=0.265 ps=2.53 w=1 l=0.9
X31 a_2251_2228# IN VPWR_KA VPWR_KA sky130_fd_pr__pfet_01v8_hvt ad=0.795 pd=6.53 as=0.42 ps=3.28 w=3 l=0.25
X32 VGND a_28_633# a_28_14# VGND sky130_fd_pr__nfet_g5v0d10v5 ad=0.098 pd=0.98 as=0.185 ps=1.93 w=0.7 l=0.6
X33 a_2080_128# a_2251_2228# VGND VGND sky130_fd_pr__nfet_01v8_lvt ad=0.14 pd=1.28 as=0.265 ps=2.53 w=1 l=0.15
X34 a_1484_128# VPWR_KA a_1251_128# VGND sky130_fd_pr__nfet_05v0_nvt ad=0.14 pd=1.28 as=0.265 ps=2.53 w=1 l=0.9
X35 VGND a_2251_36# a_1484_128# VGND sky130_fd_pr__nfet_01v8_lvt ad=0.265 pd=2.53 as=0.14 ps=1.28 w=1 l=0.15
X36 VGND a_2251_2228# a_2251_36# VGND sky130_fd_pr__nfet_01v8 ad=0.14 pd=1.28 as=0.14 ps=1.28 w=1 l=0.25
X37 a_28_633# a_28_14# VGND VGND sky130_fd_pr__nfet_g5v0d10v5 ad=0.185 pd=1.93 as=0.098 ps=0.98 w=0.7 l=0.6
X38 VGND a_2251_2228# a_2080_128# VGND sky130_fd_pr__nfet_01v8_lvt ad=0.265 pd=2.53 as=0.14 ps=1.28 w=1 l=0.15
X39 a_28_14# a_28_633# VCC_IO VCC_IO sky130_fd_pr__pfet_g5v0d10v5 ad=0.265 pd=2.53 as=0.265 ps=2.53 w=1 l=0.5
X40 a_1251_128# VPWR_KA a_1484_128# VGND sky130_fd_pr__nfet_05v0_nvt ad=0.265 pd=2.53 as=0.14 ps=1.28 w=1 l=0.9
X41 a_1251_128# HLD_H_N a_28_633# VGND sky130_fd_pr__nfet_g5v0d10v5 ad=1.4 pd=10.6 as=1.33 ps=10.5 w=5 l=0.5
X42 VCC_IO a_28_14# OUT_H_N VCC_IO sky130_fd_pr__pfet_g5v0d10v5 ad=0.42 pd=3.28 as=0.795 ps=6.53 w=3 l=0.5
X43 a_1484_128# a_2251_36# VGND VGND sky130_fd_pr__nfet_01v8_lvt ad=0.14 pd=1.28 as=0.265 ps=2.53 w=1 l=0.15
X44 a_2080_128# VPWR_KA a_1720_1202# VGND sky130_fd_pr__nfet_05v0_nvt ad=0.265 pd=2.53 as=0.265 ps=2.53 w=1 l=0.9
X45 a_2080_128# VPWR_KA a_1720_1202# VGND sky130_fd_pr__nfet_05v0_nvt ad=0.265 pd=2.53 as=0.265 ps=2.53 w=1 l=0.9
X46 VGND RST_H a_28_14# VGND sky130_fd_pr__nfet_g5v0d10v5 ad=0.42 pd=3.28 as=0.795 ps=6.53 w=3 l=0.6
X47 OUT_H_N a_28_14# VGND VGND sky130_fd_pr__nfet_g5v0d10v5 ad=0.28 pd=2.56 as=0.14 ps=1.28 w=1 l=0.6
X48 a_2080_128# a_2251_2228# VGND VGND sky130_fd_pr__nfet_01v8_lvt ad=0.14 pd=1.28 as=0.265 ps=2.53 w=1 l=0.15
X49 VGND a_2251_2228# a_2080_128# VGND sky130_fd_pr__nfet_01v8_lvt ad=0.265 pd=2.53 as=0.14 ps=1.28 w=1 l=0.15
.ends

.subckt sky130_fd_io__gpio_dat_lsv2 IN OUT_H_N RST_H SET_H HLD_H_N OUT_H VPWR_KA a_28_14#
+ VGND VCC_IO
X0 a_2251_36# a_2251_2228# VGND VGND sky130_fd_pr__nfet_01v8 ad=0.14 pd=1.28 as=0.265 ps=2.53 w=1 l=0.25
X1 a_28_633# SET_H VGND VGND sky130_fd_pr__nfet_g5v0d10v5 ad=0.795 pd=6.53 as=0.42 ps=3.28 w=3 l=0.6
X2 a_1720_1202# HLD_H_N a_28_14# VGND sky130_fd_pr__nfet_g5v0d10v5 ad=1.33 pd=10.5 as=1.33 ps=10.5 w=5 l=0.5
X3 a_1251_128# VPWR_KA a_1484_128# VGND sky130_fd_pr__nfet_05v0_nvt ad=0.265 pd=2.53 as=0.14 ps=1.28 w=1 l=0.9
X4 a_2080_128# VPWR_KA a_1720_1202# VGND sky130_fd_pr__nfet_05v0_nvt ad=0.265 pd=2.53 as=0.265 ps=2.53 w=1 l=0.9
X5 a_2080_128# a_2251_2228# VGND VGND sky130_fd_pr__nfet_01v8_lvt ad=0.14 pd=1.28 as=0.265 ps=2.53 w=1 l=0.15
X6 a_1484_128# VPWR_KA a_1251_128# VGND sky130_fd_pr__nfet_05v0_nvt ad=0.14 pd=1.28 as=0.265 ps=2.53 w=1 l=0.9
X7 VGND a_2251_2228# a_2080_128# VGND sky130_fd_pr__nfet_01v8_lvt ad=0.265 pd=2.53 as=0.14 ps=1.28 w=1 l=0.15
X8 a_1484_128# a_2251_36# VGND VGND sky130_fd_pr__nfet_01v8_lvt ad=0.14 pd=1.28 as=0.265 ps=2.53 w=1 l=0.15
X9 VGND a_2251_36# a_1484_128# VGND sky130_fd_pr__nfet_01v8_lvt ad=0.265 pd=2.53 as=0.14 ps=1.28 w=1 l=0.15
X10 VPWR_KA a_2251_2228# a_2251_36# VPWR_KA sky130_fd_pr__pfet_01v8_hvt ad=0.42 pd=3.28 as=0.795 ps=6.53 w=3 l=0.25
X11 a_2080_128# VPWR_KA a_1720_1202# VGND sky130_fd_pr__nfet_05v0_nvt ad=0.265 pd=2.53 as=0.265 ps=2.53 w=1 l=0.9
X12 a_2080_128# VPWR_KA a_1720_1202# VGND sky130_fd_pr__nfet_05v0_nvt ad=0.265 pd=2.53 as=0.265 ps=2.53 w=1 l=0.9
X13 a_1251_128# VPWR_KA a_1484_128# VGND sky130_fd_pr__nfet_05v0_nvt ad=0.265 pd=2.53 as=0.14 ps=1.28 w=1 l=0.9
X14 a_28_633# a_28_14# VCC_IO VCC_IO sky130_fd_pr__pfet_g5v0d10v5 ad=0.265 pd=2.53 as=0.265 ps=2.53 w=1 l=0.5
X15 VGND IN a_2251_2228# VGND sky130_fd_pr__nfet_01v8 ad=0.265 pd=2.53 as=0.14 ps=1.28 w=1 l=0.25
X16 OUT_H a_28_633# VCC_IO VCC_IO sky130_fd_pr__pfet_g5v0d10v5 ad=0.795 pd=6.53 as=0.42 ps=3.28 w=3 l=0.5
X17 a_1484_128# a_2251_36# VGND VGND sky130_fd_pr__nfet_01v8_lvt ad=0.14 pd=1.28 as=0.265 ps=2.53 w=1 l=0.15
X18 a_2080_128# a_2251_2228# VGND VGND sky130_fd_pr__nfet_01v8_lvt ad=0.14 pd=1.28 as=0.265 ps=2.53 w=1 l=0.15
X19 a_2080_128# VPWR_KA a_1720_1202# VGND sky130_fd_pr__nfet_05v0_nvt ad=0.265 pd=2.53 as=0.265 ps=2.53 w=1 l=0.9
X20 a_1251_128# VPWR_KA a_1484_128# VGND sky130_fd_pr__nfet_05v0_nvt ad=0.265 pd=2.53 as=0.14 ps=1.28 w=1 l=0.9
X21 a_1484_128# VPWR_KA a_1251_128# VGND sky130_fd_pr__nfet_05v0_nvt ad=0.14 pd=1.28 as=0.265 ps=2.53 w=1 l=0.9
X22 VGND a_2251_36# a_1484_128# VGND sky130_fd_pr__nfet_01v8_lvt ad=0.265 pd=2.53 as=0.14 ps=1.28 w=1 l=0.15
X23 a_1484_128# a_2251_36# VGND VGND sky130_fd_pr__nfet_01v8_lvt ad=0.14 pd=1.28 as=0.265 ps=2.53 w=1 l=0.15
X24 VGND a_28_633# OUT_H VGND sky130_fd_pr__nfet_g5v0d10v5 ad=0.14 pd=1.28 as=0.28 ps=2.56 w=1 l=0.6
X25 VGND a_2251_2228# a_2080_128# VGND sky130_fd_pr__nfet_01v8_lvt ad=0.265 pd=2.53 as=0.14 ps=1.28 w=1 l=0.15
X26 a_2251_2228# IN VGND VGND sky130_fd_pr__nfet_01v8 ad=0.14 pd=1.28 as=0.14 ps=1.28 w=1 l=0.25
X27 a_2080_128# VPWR_KA a_1720_1202# VGND sky130_fd_pr__nfet_05v0_nvt ad=0.265 pd=2.53 as=0.265 ps=2.53 w=1 l=0.9
X28 a_1484_128# VPWR_KA a_1251_128# VGND sky130_fd_pr__nfet_05v0_nvt ad=0.14 pd=1.28 as=0.265 ps=2.53 w=1 l=0.9
X29 VGND a_2251_36# a_1484_128# VGND sky130_fd_pr__nfet_01v8_lvt ad=0.265 pd=2.53 as=0.14 ps=1.28 w=1 l=0.15
X30 a_2080_128# VPWR_KA a_1720_1202# VGND sky130_fd_pr__nfet_05v0_nvt ad=0.265 pd=2.53 as=0.265 ps=2.53 w=1 l=0.9