* NGSPICE file created from caravel_openframe.ext - technology: sky130A

.subckt sky130_fd_io__hvsbt_inv_x1 OUT VPWR VGND w_n46_415# a_119_118# SUB
X0 OUT a_119_118# VPWR w_n46_415# sky130_fd_pr__pfet_g5v0d10v5 ad=0.265 pd=2.53 as=0.265 ps=2.53 w=1 l=0.6
X1 OUT a_119_118# VGND SUB sky130_fd_pr__nfet_g5v0d10v5 ad=0.185 pd=1.93 as=0.185 ps=1.93 w=0.7 l=0.6
X2 OUT a_119_118# VPWR w_n46_415# sky130_fd_pr__pfet_g5v0d10v5 ad=0.265 pd=2.53 as=0.265 ps=2.53 w=1 l=0.6
.ends

.subckt sky130_fd_io__hvsbt_xor VPWR VGND IN0 IN1 OUT w_95_503# SUB
X0 VPWR IN1 a_862_569# w_95_503# sky130_fd_pr__pfet_g5v0d10v5 ad=0.14 pd=1.28 as=0.14 ps=1.28 w=1 l=0.6
X1 a_566_375# IN1 VPWR w_95_503# sky130_fd_pr__pfet_g5v0d10v5 ad=0.265 pd=2.53 as=0.14 ps=1.28 w=1 l=0.6
X2 a_862_569# a_161_167# OUT w_95_503# sky130_fd_pr__pfet_g5v0d10v5 ad=0.14 pd=1.28 as=0.14 ps=1.28 w=1 l=0.6
X3 OUT IN1 a_510_167# SUB sky130_fd_pr__nfet_g5v0d10v5 ad=0.098 pd=0.98 as=0.098 ps=0.98 w=0.7 l=0.6
X4 a_862_167# a_566_375# OUT SUB sky130_fd_pr__nfet_g5v0d10v5 ad=0.098 pd=0.98 as=0.098 ps=0.98 w=0.7 l=0.6
X5 VPWR IN1 a_862_569# w_95_503# sky130_fd_pr__pfet_g5v0d10v5 ad=0.14 pd=1.28 as=0.14 ps=1.28 w=1 l=0.6
X6 a_566_375# IN1 VPWR w_95_503# sky130_fd_pr__pfet_g5v0d10v5 ad=0.265 pd=2.53 as=0.14 ps=1.28 w=1 l=0.6
X7 a_510_569# IN0 VPWR w_95_503# sky130_fd_pr__pfet_g5v0d10v5 ad=0.14 pd=1.28 as=0.14 ps=1.28 w=1 l=0.6
X8 VPWR IN0 a_161_167# w_95_503# sky130_fd_pr__pfet_g5v0d10v5 ad=0.14 pd=1.28 as=0.265 ps=2.53 w=1 l=0.6
X9 VGND a_161_167# a_862_167# SUB sky130_fd_pr__nfet_g5v0d10v5 ad=0.098 pd=0.98 as=0.098 ps=0.98 w=0.7 l=0.6
X10 OUT a_566_375# a_510_569# w_95_503# sky130_fd_pr__pfet_g5v0d10v5 ad=0.14 pd=1.28 as=0.14 ps=1.28 w=1 l=0.6
X11 a_566_375# IN1 VGND SUB sky130_fd_pr__nfet_g5v0d10v5 ad=0.185 pd=1.93 as=0.098 ps=0.98 w=0.7 l=0.6
X12 a_510_569# IN0 VPWR w_95_503# sky130_fd_pr__pfet_g5v0d10v5 ad=0.14 pd=1.28 as=0.14 ps=1.28 w=1 l=0.6
X13 VPWR IN0 a_161_167# w_95_503# sky130_fd_pr__pfet_g5v0d10v5 ad=0.14 pd=1.28 as=0.265 ps=2.53 w=1 l=0.6
X14 a_862_569# a_161_167# OUT w_95_503# sky130_fd_pr__pfet_g5v0d10v5 ad=0.14 pd=1.28 as=0.14 ps=1.28 w=1 l=0.6
X15 OUT a_566_375# a_510_569# w_95_503# sky130_fd_pr__pfet_g5v0d10v5 ad=0.14 pd=1.28 as=0.14 ps=1.28 w=1 l=0.6
X16 a_510_167# IN0 VGND SUB sky130_fd_pr__nfet_g5v0d10v5 ad=0.098 pd=0.98 as=0.098 ps=0.98 w=0.7 l=0.6
X17 VGND IN0 a_161_167# SUB sky130_fd_pr__nfet_g5v0d10v5 ad=0.098 pd=0.98 as=0.185 ps=1.93 w=0.7 l=0.6
.ends

.subckt sky130_fd_io__hvsbt_nor IN0 a_239_144# a_295_118# w_0_415# SUB a_66_144# a_66_482#
X0 a_239_144# a_295_118# a_239_482# w_0_415# sky130_fd_pr__pfet_g5v0d10v5 ad=0.265 pd=2.53 as=0.14 ps=1.28 w=1 l=0.6
X1 a_239_482# IN0 a_66_482# w_0_415# sky130_fd_pr__pfet_g5v0d10v5 ad=0.14 pd=1.28 as=0.265 ps=2.53 w=1 l=0.6
X2 a_66_144# a_295_118# a_239_144# SUB sky130_fd_pr__nfet_g5v0d10v5 ad=0.196 pd=1.96 as=0.098 ps=0.98 w=0.7 l=0.6
X3 a_239_144# IN0 a_66_144# SUB sky130_fd_pr__nfet_g5v0d10v5 ad=0.098 pd=0.98 as=0.185 ps=1.93 w=0.7 l=0.6
X4 a_239_144# a_295_118# a_239_482# w_0_415# sky130_fd_pr__pfet_g5v0d10v5 ad=0.265 pd=2.53 as=0.14 ps=1.28 w=1 l=0.6
X5 a_239_482# IN0 a_66_482# w_0_415# sky130_fd_pr__pfet_g5v0d10v5 ad=0.14 pd=1.28 as=0.265 ps=2.53 w=1 l=0.6
.ends

.subckt sky130_fd_io__hvsbt_inv_x2 VPWR VGND IN OUT w_0_415# SUB
X0 VPWR IN OUT w_0_415# sky130_fd_pr__pfet_g5v0d10v5 ad=0.265 pd=2.53 as=0.14 ps=1.28 w=1 l=0.6
X1 OUT IN VPWR w_0_415# sky130_fd_pr__pfet_g5v0d10v5 ad=0.14 pd=1.28 as=0.265 ps=2.53 w=1 l=0.6
X2 VGND IN OUT SUB sky130_fd_pr__nfet_g5v0d10v5 ad=0.185 pd=1.93 as=0.098 ps=0.98 w=0.7 l=0.6
X3 OUT IN VGND SUB sky130_fd_pr__nfet_g5v0d10v5 ad=0.098 pd=0.98 as=0.185 ps=1.93 w=0.7 l=0.6
X4 VPWR IN OUT w_0_415# sky130_fd_pr__pfet_g5v0d10v5 ad=0.265 pd=2.53 as=0.14 ps=1.28 w=1 l=0.6
X5 OUT IN VPWR w_0_415# sky130_fd_pr__pfet_g5v0d10v5 ad=0.14 pd=1.28 as=0.265 ps=2.53 w=1 l=0.6
.ends

.subckt sky130_fd_io__com_ctl_ls_octl OUT_H_N OUT_H IN RST_H SET_H HLD_H_N VPB a_992_934#
+ VCC_IO a_181_1305# a_n17_1379#
X0 a_361_1391# a_181_1305# a_128_1391# a_n17_1379# sky130_fd_pr__nfet_05v0_nvt ad=0.14 pd=1.28 as=0.265 ps=2.53 w=1 l=0.9
X1 VCC_IO a_130_181# OUT_H VCC_IO sky130_fd_pr__pfet_g5v0d10v5 ad=0.42 pd=3.28 as=0.795 ps=6.53 w=3 l=0.6
X2 a_128_1391# a_181_1305# a_361_1391# a_n17_1379# sky130_fd_pr__nfet_05v0_nvt ad=0.265 pd=2.53 as=0.14 ps=1.28 w=1 l=0.9
X3 a_n17_1379# a_634_829# a_128_1391# a_n17_1379# sky130_fd_pr__nfet_01v8_lvt ad=0.14 pd=1.28 as=0.14 ps=1.28 w=1 l=0.15
X4 a_128_1391# a_634_829# a_n17_1379# a_n17_1379# sky130_fd_pr__nfet_01v8_lvt ad=0.14 pd=1.28 as=0.28 ps=2.56 w=1 l=0.15
X5 a_361_1391# HLD_H_N a_130_181# a_n17_1379# sky130_fd_pr__nfet_g5v0d10v5 ad=0.795 pd=6.53 as=0.795 ps=6.53 w=3 l=0.6
X6 a_634_829# a_992_934# a_181_1305# VPB sky130_fd_pr__pfet_01v8_hvt ad=0.265 pd=2.53 as=0.14 ps=1.28 w=1 l=0.25
X7 a_361_1391# a_181_1305# a_128_1391# a_n17_1379# sky130_fd_pr__nfet_05v0_nvt ad=0.14 pd=1.28 as=0.265 ps=2.53 w=1 l=0.9
X8 a_n17_1379# a_634_829# a_128_1391# a_n17_1379# sky130_fd_pr__nfet_01v8_lvt ad=0.14 pd=1.28 as=0.14 ps=1.28 w=1 l=0.15
X9 OUT_H_N a_65_861# VCC_IO VCC_IO sky130_fd_pr__pfet_g5v0d10v5 ad=0.795 pd=6.53 as=0.42 ps=3.28 w=3 l=0.6
X10 a_n17_1379# a_992_934# a_724_1391# a_n17_1379# sky130_fd_pr__nfet_01v8_lvt ad=0.14 pd=1.28 as=0.14 ps=1.28 w=1 l=0.15
X11 a_128_1391# a_634_829# a_n17_1379# a_n17_1379# sky130_fd_pr__nfet_01v8_lvt ad=0.14 pd=1.28 as=0.14 ps=1.28 w=1 l=0.15
X12 a_724_1391# a_992_934# a_n17_1379# a_n17_1379# sky130_fd_pr__nfet_01v8_lvt ad=0.14 pd=1.28 as=0.14 ps=1.28 w=1 l=0.15
X13 a_65_861# HLD_H_N a_957_1391# a_n17_1379# sky130_fd_pr__nfet_g5v0d10v5 ad=0.42 pd=3.28 as=0.795 ps=6.53 w=3 l=0.6
X14 OUT_H a_130_181# a_n17_1379# a_n17_1379# sky130_fd_pr__nfet_g5v0d10v5 ad=0.28 pd=2.56 as=0.14 ps=1.28 w=1 l=0.6
X15 a_n17_1379# a_992_934# a_724_1391# a_n17_1379# sky130_fd_pr__nfet_01v8_lvt ad=0.265 pd=2.53 as=0.14 ps=1.28 w=1 l=0.15
X16 a_65_861# a_130_181# VCC_IO VCC_IO sky130_fd_pr__pfet_g5v0d10v5 ad=0.199 pd=2.03 as=0.199 ps=2.03 w=0.75 l=0.5
X17 a_724_1391# a_992_934# a_n17_1379# a_n17_1379# sky130_fd_pr__nfet_01v8_lvt ad=0.14 pd=1.28 as=0.14 ps=1.28 w=1 l=0.15
X18 a_n17_1379# a_65_861# a_130_181# a_n17_1379# sky130_fd_pr__nfet_g5v0d10v5 ad=0.105 pd=1.03 as=0.199 ps=2.03 w=0.75 l=1
X19 a_181_1305# IN a_992_934# VPB sky130_fd_pr__pfet_01v8_hvt ad=0.14 pd=1.28 as=0.265 ps=2.53 w=1 l=0.25
X20 a_957_1391# a_181_1305# a_724_1391# a_n17_1379# sky130_fd_pr__nfet_05v0_nvt ad=0.14 pd=1.28 as=0.265 ps=2.53 w=1 l=0.9
X21 a_n17_1379# IN a_992_934# a_n17_1379# sky130_fd_pr__nfet_01v8 ad=0.14 pd=1.28 as=0.28 ps=2.56 w=1 l=0.25
X22 a_n17_1379# a_65_861# OUT_H_N a_n17_1379# sky130_fd_pr__nfet_g5v0d10v5 ad=0.14 pd=1.28 as=0.28 ps=2.56 w=1 l=0.6
X23 a_130_181# a_65_861# VCC_IO VCC_IO sky130_fd_pr__pfet_g5v0d10v5 ad=0.199 pd=2.03 as=0.199 ps=2.03 w=0.75 l=0.5
X24 a_724_1391# a_181_1305# a_957_1391# a_n17_1379# sky130_fd_pr__nfet_05v0_nvt ad=0.265 pd=2.53 as=0.14 ps=1.28 w=1 l=0.9
X25 a_957_1391# a_181_1305# a_724_1391# a_n17_1379# sky130_fd_pr__nfet_05v0_nvt ad=0.14 pd=1.28 as=0.265 ps=2.53 w=1 l=0.9
X26 a_65_861# a_130_181# a_n17_1379# a_n17_1379# sky130_fd_pr__nfet_g5v0d10v5 ad=0.199 pd=2.03 as=0.105 ps=1.03 w=0.75 l=1
X27 a_634_829# a_992_934# a_n17_1379# a_n17_1379# sky130_fd_pr__nfet_01v8 ad=0.28 pd=2.56 as=0.14 ps=1.28 w=1 l=0.25
X28 a_130_181# SET_H a_n17_1379# a_n17_1379# sky130_fd_pr__nfet_g5v0d10v5 ad=0.795 pd=6.53 as=0.42 ps=3.28 w=3 l=0.6
X29 a_724_1391# a_181_1305# a_957_1391# a_n17_1379# sky130_fd_pr__nfet_05v0_nvt ad=0.265 pd=2.53 as=0.14 ps=1.28 w=1 l=0.9
X30 a_n17_1379# RST_H a_65_861# a_n17_1379# sky130_fd_pr__nfet_g5v0d10v5 ad=0.42 pd=3.28 as=0.42 ps=3.28 w=3 l=0.6
X31 a_128_1391# a_181_1305# a_361_1391# a_n17_1379# sky130_fd_pr__nfet_05v0_nvt ad=0.265 pd=2.53 as=0.14 ps=1.28 w=1 l=0.9
.ends

.subckt sky130_fd_io__hvsbt_nand2 IN1 IN0 OUT VGND VPWR w_n42_415# SUB
X0 VPWR IN1 OUT w_n42_415# sky130_fd_pr__pfet_g5v0d10v5 ad=0.265 pd=2.53 as=0.14 ps=1.28 w=1 l=0.6
X1 OUT IN0 VPWR w_n42_415# sky130_fd_pr__pfet_g5v0d10v5 ad=0.14 pd=1.28 as=0.265 ps=2.53 w=1 l=0.6
X2 OUT IN1 a_239_144# SUB sky130_fd_pr__nfet_g5v0d10v5 ad=0.185 pd=1.93 as=0.098 ps=0.98 w=0.7 l=0.6
X3 a_239_144# IN0 VGND SUB sky130_fd_pr__nfet_g5v0d10v5 ad=0.098 pd=0.98 as=0.185 ps=1.93 w=0.7 l=0.6
X4 VPWR IN1 OUT w_n42_415# sky130_fd_pr__pfet_g5v0d10v5 ad=0.265 pd=2.53 as=0.14 ps=1.28 w=1 l=0.6
X5 OUT IN0 VPWR w_n42_415# sky130_fd_pr__pfet_g5v0d10v5 ad=0.14 pd=1.28 as=0.265 ps=2.53 w=1 l=0.6
.ends

.subckt sky130_fd_io__hvsbt_xorv2 VPWR VGND IN0 IN1 OUT w_95_503# a_566_375# SUB a_742_141#
X0 VPWR IN1 a_862_569# w_95_503# sky130_fd_pr__pfet_g5v0d10v5 ad=0.14 pd=1.28 as=0.14 ps=1.28 w=1 l=0.6
X1 a_566_375# IN1 VPWR w_95_503# sky130_fd_pr__pfet_g5v0d10v5 ad=0.265 pd=2.53 as=0.14 ps=1.28 w=1 l=0.6
X2 a_862_569# a_161_167# OUT w_95_503# sky130_fd_pr__pfet_g5v0d10v5 ad=0.14 pd=1.28 as=0.14 ps=1.28 w=1 l=0.6
X3 OUT IN1 a_510_167# SUB sky130_fd_pr__nfet_g5v0d10v5 ad=0.098 pd=0.98 as=0.098 ps=0.98 w=0.7 l=0.6
X4 a_862_167# a_742_141# OUT SUB sky130_fd_pr__nfet_g5v0d10v5 ad=0.098 pd=0.98 as=0.098 ps=0.98 w=0.7 l=0.6
X5 VPWR IN1 a_862_569# w_95_503# sky130_fd_pr__pfet_g5v0d10v5 ad=0.14 pd=1.28 as=0.14 ps=1.28 w=1 l=0.6
X6 a_566_375# IN1 VPWR w_95_503# sky130_fd_pr__pfet_g5v0d10v5 ad=0.265 pd=2.53 as=0.14 ps=1.28 w=1 l=0.6
X7 a_510_569# IN0 VPWR w_95_503# sky130_fd_pr__pfet_g5v0d10v5 ad=0.14 pd=1.28 as=0.14 ps=1.28 w=1 l=0.6
X8 VPWR IN0 a_161_167# w_95_503# sky130_fd_pr__pfet_g5v0d10v5 ad=0.14 pd=1.28 as=0.265 ps=2.53 w=1 l=0.6
X9 VGND a_161_167# a_862_167# SUB sky130_fd_pr__nfet_g5v0d10v5 ad=0.098 pd=0.98 as=0.098 ps=0.98 w=0.7 l=0.6
X10 OUT a_566_375# a_510_569# w_95_503# sky130_fd_pr__pfet_g5v0d10v5 ad=0.14 pd=1.28 as=0.14 ps=1.28 w=1 l=0.6
X11 a_566_375# IN1 VGND SUB sky130_fd_pr__nfet_g5v0d10v5 ad=0.185 pd=1.93 as=0.098 ps=0.98 w=0.7 l=0.6
X12 a_510_569# IN0 VPWR w_95_503# sky130_fd_pr__pfet_g5v0d10v5 ad=0.14 pd=1.28 as=0.14 ps=1.28 w=1 l=0.6
X13 VPWR IN0 a_161_167# w_95_503# sky130_fd_pr__pfet_g5v0d10v5 ad=0.14 pd=1.28 as=0.265 ps=2.53 w=1 l=0.6
X14 a_862_569# a_161_167# OUT w_95_503# sky130_fd_pr__pfet_g5v0d10v5 ad=0.14 pd=1.28 as=0.14 ps=1.28 w=1 l=0.6
X15 OUT a_566_375# a_510_569# w_95_503# sky130_fd_pr__pfet_g5v0d10v5 ad=0.14 pd=1.28 as=0.14 ps=1.28 w=1 l=0.6
X16 a_510_167# IN0 VGND SUB sky130_fd_pr__nfet_g5v0d10v5 ad=0.098 pd=0.98 as=0.098 ps=0.98 w=0.7 l=0.6
X17 VGND IN0 a_161_167# SUB sky130_fd_pr__nfet_g5v0d10v5 ad=0.098 pd=0.98 as=0.185 ps=1.93 w=0.7 l=0.6
.ends

.subckt sky130_fd_io__gpiov2_octl DM_H[0] DM_H[2] DM_H_N[0] DM_H_N[1] DM_H_N[2] PUEN_2OR1_H
+ DM_H[1] PDEN_H_N[1] PDEN_H_N[0] SLOW SLOW_H VCC_IO sky130_fd_io__hvsbt_xorv2_0/a_742_141#
+ sky130_fd_io__hvsbt_nand2_0/VPWR sky130_fd_io__hvsbt_nand2_0/OUT sky130_fd_io__hvsbt_inv_x2_3/OUT
+ sky130_fd_io__hvsbt_nor_0/w_0_415# sky130_fd_io__hvsbt_nand2_0/VGND li_n9202_2336#
+ m1_n8913_3102# VPWR sky130_fd_io__hvsbt_nor_0/IN0 sky130_fd_io__hvsbt_nand2_0/IN0
+ sky130_fd_io__hvsbt_xorv2_0/a_566_375# sky130_fd_io__hvsbt_inv_x2_2/OUT sky130_fd_io__hvsbt_nand2_4/IN1
+ SLOW_H_N HLD_I_H_N VGND OD_H
Xsky130_fd_io__hvsbt_inv_x1_4 sky130_fd_io__hvsbt_inv_x2_2/IN VCC_IO VGND VCC_IO li_5323_4140#
+ VGND sky130_fd_io__hvsbt_inv_x1
Xsky130_fd_io__hvsbt_xor_0 VCC_IO VGND DM_H[2] DM_H[1] sky130_fd_io__hvsbt_xor_0/OUT
+ VCC_IO VGND sky130_fd_io__hvsbt_xor
Xsky130_fd_io__hvsbt_nor_0 sky130_fd_io__hvsbt_nor_0/IN0 sky130_fd_io__hvsbt_nand2_0/IN1
+ li_n9202_2336# sky130_fd_io__hvsbt_nor_0/w_0_415# VGND sky130_fd_io__hvsbt_nand2_0/VGND
+ sky130_fd_io__hvsbt_nand2_0/VPWR sky130_fd_io__hvsbt_nor
Xsky130_fd_io__hvsbt_inv_x2_0 VCC_IO VGND sky130_fd_io__hvsbt_inv_x2_0/IN PDEN_H_N[0]
+ VCC_IO VGND sky130_fd_io__hvsbt_inv_x2
Xsky130_fd_io__hvsbt_nor_1 DM_H_N[2] sky130_fd_io__hvsbt_nand2_3/IN0 DM_H_N[1] VCC_IO
+ VGND VGND VCC_IO sky130_fd_io__hvsbt_nor
Xsky130_fd_io__hvsbt_inv_x2_1 VCC_IO VGND sky130_fd_io__hvsbt_inv_x2_1/IN PDEN_H_N[1]
+ VCC_IO VGND sky130_fd_io__hvsbt_inv_x2
Xsky130_fd_io__hvsbt_nor_2 sky130_fd_io__hvsbt_nor_2/IN0 li_5323_4140# DM_H_N[1] VCC_IO
+ VGND VGND VCC_IO sky130_fd_io__hvsbt_nor
Xsky130_fd_io__com_ctl_ls_octl_0 SLOW_H_N SLOW_H SLOW OD_H VGND HLD_I_H_N VPWR m2_5755_2254#
+ VCC_IO VPWR VGND sky130_fd_io__com_ctl_ls_octl
Xsky130_fd_io__hvsbt_nand2_0 sky130_fd_io__hvsbt_nand2_0/IN1 sky130_fd_io__hvsbt_nand2_0/IN0
+ sky130_fd_io__hvsbt_nand2_0/OUT sky130_fd_io__hvsbt_nand2_0/VGND sky130_fd_io__hvsbt_nand2_0/VPWR
+ sky130_fd_io__hvsbt_nor_0/w_0_415# VGND sky130_fd_io__hvsbt_nand2
Xsky130_fd_io__hvsbt_nand2_1 sky130_fd_io__hvsbt_nand2_3/OUT sky130_fd_io__hvsbt_nand2_2/OUT
+ PUEN_2OR1_H VGND VCC_IO VCC_IO VGND sky130_fd_io__hvsbt_nand2
Xsky130_fd_io__hvsbt_inv_x2_2 VCC_IO VGND sky130_fd_io__hvsbt_inv_x2_2/IN sky130_fd_io__hvsbt_inv_x2_2/OUT
+ VCC_IO VGND sky130_fd_io__hvsbt_inv_x2
Xsky130_fd_io__hvsbt_nand2_2 DM_H[0] sky130_fd_io__hvsbt_xor_0/OUT sky130_fd_io__hvsbt_nand2_2/OUT
+ VGND VCC_IO VCC_IO VGND sky130_fd_io__hvsbt_nand2
Xsky130_fd_io__hvsbt_inv_x2_3 VCC_IO VGND sky130_fd_io__hvsbt_inv_x2_3/IN sky130_fd_io__hvsbt_inv_x2_3/OUT
+ VCC_IO VGND sky130_fd_io__hvsbt_inv_x2
Xsky130_fd_io__hvsbt_nand2_3 DM_H_N[0] sky130_fd_io__hvsbt_nand2_3/IN0 sky130_fd_io__hvsbt_nand2_3/OUT
+ VGND VCC_IO VCC_IO VGND sky130_fd_io__hvsbt_nand2
Xsky130_fd_io__hvsbt_nand2_4 sky130_fd_io__hvsbt_nand2_4/IN1 PUEN_2OR1_H sky130_fd_io__hvsbt_nand2_4/OUT
+ VGND VCC_IO VCC_IO VGND sky130_fd_io__hvsbt_nand2
Xsky130_fd_io__hvsbt_nand2_5 DM_H_N[1] DM_H_N[2] sky130_fd_io__hvsbt_nand2_6/IN1 VGND
+ VCC_IO VCC_IO VGND sky130_fd_io__hvsbt_nand2
Xsky130_fd_io__hvsbt_nand2_6 sky130_fd_io__hvsbt_nand2_6/IN1 DM_H_N[0] sky130_fd_io__hvsbt_nand2_6/OUT
+ VGND VCC_IO VCC_IO VGND sky130_fd_io__hvsbt_nand2
Xsky130_fd_io__hvsbt_nand2_7 DM_H[0] DM_H[1] sky130_fd_io__hvsbt_nand2_7/OUT VGND
+ VCC_IO VCC_IO VGND sky130_fd_io__hvsbt_nand2
Xsky130_fd_io__hvsbt_xorv2_0 VCC_IO VGND DM_H[2] DM_H[0] sky130_fd_io__hvsbt_nor_2/IN0
+ VCC_IO sky130_fd_io__hvsbt_xorv2_0/a_566_375# VGND sky130_fd_io__hvsbt_xorv2_0/a_742_141#
+ sky130_fd_io__hvsbt_xorv2
Xsky130_fd_io__hvsbt_inv_x1_0 sky130_fd_io__hvsbt_inv_x2_0/IN VCC_IO VGND VCC_IO sky130_fd_io__hvsbt_nand2_7/OUT
+ VGND sky130_fd_io__hvsbt_inv_x1
Xsky130_fd_io__hvsbt_inv_x1_1 sky130_fd_io__hvsbt_inv_x2_3/IN VCC_IO VGND VCC_IO sky130_fd_io__hvsbt_inv_x1_3/OUT
+ VGND sky130_fd_io__hvsbt_inv_x1
Xsky130_fd_io__hvsbt_inv_x1_2 sky130_fd_io__hvsbt_inv_x2_1/IN VCC_IO VGND VCC_IO sky130_fd_io__hvsbt_nand2_6/OUT
+ VGND sky130_fd_io__hvsbt_inv_x1
Xsky130_fd_io__hvsbt_inv_x1_3 sky130_fd_io__hvsbt_inv_x1_3/OUT VCC_IO VGND VCC_IO
+ sky130_fd_io__hvsbt_nand2_4/OUT VGND sky130_fd_io__hvsbt_inv_x1
.ends

.subckt sky130_fd_io__gpio_dat_ls_1v2 IN OUT_H_N RST_H SET_H HLD_H_N OUT_H VPWR_KA
+ VGND VCC_IO
X0 a_2251_36# a_2251_2228# VGND VGND sky130_fd_pr__nfet_01v8 ad=0.14 pd=1.28 as=0.265 ps=2.53 w=1 l=0.25
X1 a_28_633# SET_H VGND VGND sky130_fd_pr__nfet_g5v0d10v5 ad=0.795 pd=6.53 as=0.42 ps=3.28 w=3 l=0.6
X2 a_1720_1202# HLD_H_N a_28_14# VGND sky130_fd_pr__nfet_g5v0d10v5 ad=1.33 pd=10.5 as=1.33 ps=10.5 w=5 l=0.5
X3 a_1251_128# VPWR_KA a_1484_128# VGND sky130_fd_pr__nfet_05v0_nvt ad=0.265 pd=2.53 as=0.14 ps=1.28 w=1 l=0.9
X4 a_2080_128# VPWR_KA a_1720_1202# VGND sky130_fd_pr__nfet_05v0_nvt ad=0.265 pd=2.53 as=0.265 ps=2.53 w=1 l=0.9
X5 a_2080_128# a_2251_2228# VGND VGND sky130_fd_pr__nfet_01v8_lvt ad=0.14 pd=1.28 as=0.265 ps=2.53 w=1 l=0.15
X6 a_1484_128# VPWR_KA a_1251_128# VGND sky130_fd_pr__nfet_05v0_nvt ad=0.14 pd=1.28 as=0.265 ps=2.53 w=1 l=0.9
X7 VGND a_2251_2228# a_2080_128# VGND sky130_fd_pr__nfet_01v8_lvt ad=0.265 pd=2.53 as=0.14 ps=1.28 w=1 l=0.15
X8 a_1484_128# a_2251_36# VGND VGND sky130_fd_pr__nfet_01v8_lvt ad=0.14 pd=1.28 as=0.265 ps=2.53 w=1 l=0.15
X9 VGND a_2251_36# a_1484_128# VGND sky130_fd_pr__nfet_01v8_lvt ad=0.265 pd=2.53 as=0.14 ps=1.28 w=1 l=0.15
X10 VPWR_KA a_2251_2228# a_2251_36# VPWR_KA sky130_fd_pr__pfet_01v8_hvt ad=0.42 pd=3.28 as=0.795 ps=6.53 w=3 l=0.25
X11 a_2080_128# VPWR_KA a_1720_1202# VGND sky130_fd_pr__nfet_05v0_nvt ad=0.265 pd=2.53 as=0.265 ps=2.53 w=1 l=0.9
X12 a_2080_128# VPWR_KA a_1720_1202# VGND sky130_fd_pr__nfet_05v0_nvt ad=0.265 pd=2.53 as=0.265 ps=2.53 w=1 l=0.9
X13 a_1251_128# VPWR_KA a_1484_128# VGND sky130_fd_pr__nfet_05v0_nvt ad=0.265 pd=2.53 as=0.14 ps=1.28 w=1 l=0.9
X14 a_28_633# a_28_14# VCC_IO VCC_IO sky130_fd_pr__pfet_g5v0d10v5 ad=0.265 pd=2.53 as=0.265 ps=2.53 w=1 l=0.5
X15 VGND IN a_2251_2228# VGND sky130_fd_pr__nfet_01v8 ad=0.265 pd=2.53 as=0.14 ps=1.28 w=1 l=0.25
X16 OUT_H a_28_633# VCC_IO VCC_IO sky130_fd_pr__pfet_g5v0d10v5 ad=0.795 pd=6.53 as=0.42 ps=3.28 w=3 l=0.5
X17 a_1484_128# a_2251_36# VGND VGND sky130_fd_pr__nfet_01v8_lvt ad=0.14 pd=1.28 as=0.265 ps=2.53 w=1 l=0.15
X18 a_2080_128# a_2251_2228# VGND VGND sky130_fd_pr__nfet_01v8_lvt ad=0.14 pd=1.28 as=0.265 ps=2.53 w=1 l=0.15
X19 a_2080_128# VPWR_KA a_1720_1202# VGND sky130_fd_pr__nfet_05v0_nvt ad=0.265 pd=2.53 as=0.265 ps=2.53 w=1 l=0.9
X20 a_1251_128# VPWR_KA a_1484_128# VGND sky130_fd_pr__nfet_05v0_nvt ad=0.265 pd=2.53 as=0.14 ps=1.28 w=1 l=0.9
X21 a_1484_128# VPWR_KA a_1251_128# VGND sky130_fd_pr__nfet_05v0_nvt ad=0.14 pd=1.28 as=0.265 ps=2.53 w=1 l=0.9
X22 VGND a_2251_36# a_1484_128# VGND sky130_fd_pr__nfet_01v8_lvt ad=0.265 pd=2.53 as=0.14 ps=1.28 w=1 l=0.15
X23 a_1484_128# a_2251_36# VGND VGND sky130_fd_pr__nfet_01v8_lvt ad=0.14 pd=1.28 as=0.265 ps=2.53 w=1 l=0.15
X24 VGND a_28_633# OUT_H VGND sky130_fd_pr__nfet_g5v0d10v5 ad=0.14 pd=1.28 as=0.28 ps=2.56 w=1 l=0.6
X25 VGND a_2251_2228# a_2080_128# VGND sky130_fd_pr__nfet_01v8_lvt ad=0.265 pd=2.53 as=0.14 ps=1.28 w=1 l=0.15
X26 a_2251_2228# IN VGND VGND sky130_fd_pr__nfet_01v8 ad=0.14 pd=1.28 as=0.14 ps=1.28 w=1 l=0.25
X27 a_2080_128# VPWR_KA a_1720_1202# VGND sky130_fd_pr__nfet_05v0_nvt ad=0.265 pd=2.53 as=0.265 ps=2.53 w=1 l=0.9
X28 a_1484_128# VPWR_KA a_1251_128# VGND sky130_fd_pr__nfet_05v0_nvt ad=0.14 pd=1.28 as=0.265 ps=2.53 w=1 l=0.9
X29 VGND a_2251_36# a_1484_128# VGND sky130_fd_pr__nfet_01v8_lvt ad=0.265 pd=2.53 as=0.14 ps=1.28 w=1 l=0.15
X30 a_2080_128# VPWR_KA a_1720_1202# VGND sky130_fd_pr__nfet_05v0_nvt ad=0.265 pd=2.53 as=0.265 ps=2.53 w=1 l=0.9
X31 a_2251_2228# IN VPWR_KA VPWR_KA sky130_fd_pr__pfet_01v8_hvt ad=0.795 pd=6.53 as=0.42 ps=3.28 w=3 l=0.25
X32 VGND a_28_633# a_28_14# VGND sky130_fd_pr__nfet_g5v0d10v5 ad=0.098 pd=0.98 as=0.185 ps=1.93 w=0.7 l=0.6
X33 a_2080_128# a_2251_2228# VGND VGND sky130_fd_pr__nfet_01v8_lvt ad=0.14 pd=1.28 as=0.265 ps=2.53 w=1 l=0.15
X34 a_1484_128# VPWR_KA a_1251_128# VGND sky130_fd_pr__nfet_05v0_nvt ad=0.14 pd=1.28 as=0.265 ps=2.53 w=1 l=0.9
X35 VGND a_2251_36# a_1484_128# VGND sky130_fd_pr__nfet_01v8_lvt ad=0.265 pd=2.53 as=0.14 ps=1.28 w=1 l=0.15
X36 VGND a_2251_2228# a_2251_36# VGND sky130_fd_pr__nfet_01v8 ad=0.14 pd=1.28 as=0.14 ps=1.28 w=1 l=0.25
X37 a_28_633# a_28_14# VGND VGND sky130_fd_pr__nfet_g5v0d10v5 ad=0.185 pd=1.93 as=0.098 ps=0.98 w=0.7 l=0.6
X38 VGND a_2251_2228# a_2080_128# VGND sky130_fd_pr__nfet_01v8_lvt ad=0.265 pd=2.53 as=0.14 ps=1.28 w=1 l=0.15
X39 a_28_14# a_28_633# VCC_IO VCC_IO sky130_fd_pr__pfet_g5v0d10v5 ad=0.265 pd=2.53 as=0.265 ps=2.53 w=1 l=0.5
X40 a_1251_128# VPWR_KA a_1484_128# VGND sky130_fd_pr__nfet_05v0_nvt ad=0.265 pd=2.53 as=0.14 ps=1.28 w=1 l=0.9
X41 a_1251_128# HLD_H_N a_28_633# VGND sky130_fd_pr__nfet_g5v0d10v5 ad=1.4 pd=10.6 as=1.33 ps=10.5 w=5 l=0.5
X42 VCC_IO a_28_14# OUT_H_N VCC_IO sky130_fd_pr__pfet_g5v0d10v5 ad=0.42 pd=3.28 as=0.795 ps=6.53 w=3 l=0.5
X43 a_1484_128# a_2251_36# VGND VGND sky130_fd_pr__nfet_01v8_lvt ad=0.14 pd=1.28 as=0.265 ps=2.53 w=1 l=0.15
X44 a_2080_128# VPWR_KA a_1720_1202# VGND sky130_fd_pr__nfet_05v0_nvt ad=0.265 pd=2.53 as=0.265 ps=2.53 w=1 l=0.9
X45 a_2080_128# VPWR_KA a_1720_1202# VGND sky130_fd_pr__nfet_05v0_nvt ad=0.265 pd=2.53 as=0.265 ps=2.53 w=1 l=0.9
X46 VGND RST_H a_28_14# VGND sky130_fd_pr__nfet_g5v0d10v5 ad=0.42 pd=3.28 as=0.795 ps=6.53 w=3 l=0.6
X47 OUT_H_N a_28_14# VGND VGND sky130_fd_pr__nfet_g5v0d10v5 ad=0.28 pd=2.56 as=0.14 ps=1.28 w=1 l=0.6
X48 a_2080_128# a_2251_2228# VGND VGND sky130_fd_pr__nfet_01v8_lvt ad=0.14 pd=1.28 as=0.265 ps=2.53 w=1 l=0.15
X49 VGND a_2251_2228# a_2080_128# VGND sky130_fd_pr__nfet_01v8_lvt ad=0.265 pd=2.53 as=0.14 ps=1.28 w=1 l=0.15
.ends

.subckt sky130_fd_io__gpio_dat_lsv2 IN OUT_H_N RST_H SET_H HLD_H_N OUT_H VPWR_KA a_28_14#
+ VGND VCC_IO
X0 a_2251_36# a_2251_2228# VGND VGND sky130_fd_pr__nfet_01v8 ad=0.14 pd=1.28 as=0.265 ps=2.53 w=1 l=0.25
X1 a_28_633# SET_H VGND VGND sky130_fd_pr__nfet_g5v0d10v5 ad=0.795 pd=6.53 as=0.42 ps=3.28 w=3 l=0.6
X2 a_1720_1202# HLD_H_N a_28_14# VGND sky130_fd_pr__nfet_g5v0d10v5 ad=1.33 pd=10.5 as=1.33 ps=10.5 w=5 l=0.5
X3 a_1251_128# VPWR_KA a_1484_128# VGND sky130_fd_pr__nfet_05v0_nvt ad=0.265 pd=2.53 as=0.14 ps=1.28 w=1 l=0.9
X4 a_2080_128# VPWR_KA a_1720_1202# VGND sky130_fd_pr__nfet_05v0_nvt ad=0.265 pd=2.53 as=0.265 ps=2.53 w=1 l=0.9
X5 a_2080_128# a_2251_2228# VGND VGND sky130_fd_pr__nfet_01v8_lvt ad=0.14 pd=1.28 as=0.265 ps=2.53 w=1 l=0.15
X6 a_1484_128# VPWR_KA a_1251_128# VGND sky130_fd_pr__nfet_05v0_nvt ad=0.14 pd=1.28 as=0.265 ps=2.53 w=1 l=0.9
X7 VGND a_2251_2228# a_2080_128# VGND sky130_fd_pr__nfet_01v8_lvt ad=0.265 pd=2.53 as=0.14 ps=1.28 w=1 l=0.15
X8 a_1484_128# a_2251_36# VGND VGND sky130_fd_pr__nfet_01v8_lvt ad=0.14 pd=1.28 as=0.265 ps=2.53 w=1 l=0.15
X9 VGND a_2251_36# a_1484_128# VGND sky130_fd_pr__nfet_01v8_lvt ad=0.265 pd=2.53 as=0.14 ps=1.28 w=1 l=0.15
X10 VPWR_KA a_2251_2228# a_2251_36# VPWR_KA sky130_fd_pr__pfet_01v8_hvt ad=0.42 pd=3.28 as=0.795 ps=6.53 w=3 l=0.25
X11 a_2080_128# VPWR_KA a_1720_1202# VGND sky130_fd_pr__nfet_05v0_nvt ad=0.265 pd=2.53 as=0.265 ps=2.53 w=1 l=0.9
X12 a_2080_128# VPWR_KA a_1720_1202# VGND sky130_fd_pr__nfet_05v0_nvt ad=0.265 pd=2.53 as=0.265 ps=2.53 w=1 l=0.9
X13 a_1251_128# VPWR_KA a_1484_128# VGND sky130_fd_pr__nfet_05v0_nvt ad=0.265 pd=2.53 as=0.14 ps=1.28 w=1 l=0.9
X14 a_28_633# a_28_14# VCC_IO VCC_IO sky130_fd_pr__pfet_g5v0d10v5 ad=0.265 pd=2.53 as=0.265 ps=2.53 w=1 l=0.5
X15 VGND IN a_2251_2228# VGND sky130_fd_pr__nfet_01v8 ad=0.265 pd=2.53 as=0.14 ps=1.28 w=1 l=0.25
X16 OUT_H a_28_633# VCC_IO VCC_IO sky130_fd_pr__pfet_g5v0d10v5 ad=0.795 pd=6.53 as=0.42 ps=3.28 w=3 l=0.5
X17 a_1484_128# a_2251_36# VGND VGND sky130_fd_pr__nfet_01v8_lvt ad=0.14 pd=1.28 as=0.265 ps=2.53 w=1 l=0.15
X18 a_2080_128# a_2251_2228# VGND VGND sky130_fd_pr__nfet_01v8_lvt ad=0.14 pd=1.28 as=0.265 ps=2.53 w=1 l=0.15
X19 a_2080_128# VPWR_KA a_1720_1202# VGND sky130_fd_pr__nfet_05v0_nvt ad=0.265 pd=2.53 as=0.265 ps=2.53 w=1 l=0.9
X20 a_1251_128# VPWR_KA a_1484_128# VGND sky130_fd_pr__nfet_05v0_nvt ad=0.265 pd=2.53 as=0.14 ps=1.28 w=1 l=0.9
X21 a_1484_128# VPWR_KA a_1251_128# VGND sky130_fd_pr__nfet_05v0_nvt ad=0.14 pd=1.28 as=0.265 ps=2.53 w=1 l=0.9
X22 VGND a_2251_36# a_1484_128# VGND sky130_fd_pr__nfet_01v8_lvt ad=0.265 pd=2.53 as=0.14 ps=1.28 w=1 l=0.15
X23 a_1484_128# a_2251_36# VGND VGND sky130_fd_pr__nfet_01v8_lvt ad=0.14 pd=1.28 as=0.265 ps=2.53 w=1 l=0.15
X24 VGND a_28_633# OUT_H VGND sky130_fd_pr__nfet_g5v0d10v5 ad=0.14 pd=1.28 as=0.28 ps=2.56 w=1 l=0.6
X25 VGND a_2251_2228# a_2080_128# VGND sky130_fd_pr__nfet_01v8_lvt ad=0.265 pd=2.53 as=0.14 ps=1.28 w=1 l=0.15
X26 a_2251_2228# IN VGND VGND sky130_fd_pr__nfet_01v8 ad=0.14 pd=1.28 as=0.14 ps=1.28 w=1 l=0.25
X27 a_2080_128# VPWR_KA a_1720_1202# VGND sky130_fd_pr__nfet_05v0_nvt ad=0.265 pd=2.53 as=0.265 ps=2.53 w=1 l=0.9
X28 a_1484_128# VPWR_KA a_1251_128# VGND sky130_fd_pr__nfet_05v0_nvt ad=0.14 pd=1.28 as=0.265 ps=2.53 w=1 l=0.9
X29 VGND a_2251_36# a_1484_128# VGND sky130_fd_pr__nfet_01v8_lvt ad=0.265 pd=2.53 as=0.14 ps=1.28 w=1 l=0.15
X30 a_2080_128# VPWR_KA a_1720_1202# VGND sky130_fd_pr__nfet_05v0_nvt ad=0.265 pd=2.53 as=0.265 ps=2.53 w=1 l=0.9
X31 a_2251_2228# IN VPWR_KA VPWR_KA sky130_fd_pr__pfet_01v8_hvt ad=0.795 pd=6.53 as=0.42 ps=3.28 w=3 l=0.25
X32 VGND a_28_633# a_28_14# VGND sky130_fd_pr__nfet_g5v0d10v5 ad=0.098 pd=0.98 as=0.185 ps=1.93 w=0.7 l=0.6
X33 a_2080_128# a_2251_2228# VGND VGND sky130_fd_pr__nfet_01v8_lvt ad=0.14 pd=1.28 as=0.265 ps=2.53 w=1 l=0.15
X34 a_1484_128# VPWR_KA a_1251_128# VGND sky130_fd_pr__nfet_05v0_nvt ad=0.14 pd=1.28 as=0.265 ps=2.53 w=1 l=0.9
X35 VGND a_2251_36# a_1484_128# VGND sky130_fd_pr__nfet_01v8_lvt ad=0.265 pd=2.53 as=0.14 ps=1.28 w=1 l=0.15
X36 VGND a_2251_2228# a_2251_36# VGND sky130_fd_pr__nfet_01v8 ad=0.14 pd=1.28 as=0.14 ps=1.28 w=1 l=0.25
X37 a_28_633# a_28_14# VGND VGND sky130_fd_pr__nfet_g5v0d10v5 ad=0.185 pd=1.93 as=0.098 ps=0.98 w=0.7 l=0.6
X38 VGND a_2251_2228# a_2080_128# VGND sky130_fd_pr__nfet_01v8_lvt ad=0.265 pd=2.53 as=0.14 ps=1.28 w=1 l=0.15
X39 a_28_14# a_28_633# VCC_IO VCC_IO sky130_fd_pr__pfet_g5v0d10v5 ad=0.265 pd=2.53 as=0.265 ps=2.53 w=1 l=0.5
X40 a_1251_128# VPWR_KA a_1484_128# VGND sky130_fd_pr__nfet_05v0_nvt ad=0.265 pd=2.53 as=0.14 ps=1.28 w=1 l=0.9
X41 a_1251_128# HLD_H_N a_28_633# VGND sky130_fd_pr__nfet_g5v0d10v5 ad=1.4 pd=10.6 as=1.33 ps=10.5 w=5 l=0.5
X42 VCC_IO a_28_14# OUT_H_N VCC_IO sky130_fd_pr__pfet_g5v0d10v5 ad=0.42 pd=3.28 as=0.795 ps=6.53 w=3 l=0.5
X43 a_1484_128# a_2251_36# VGND VGND sky130_fd_pr__nfet_01v8_lvt ad=0.14 pd=1.28 as=0.265 ps=2.53 w=1 l=0.15
X44 a_2080_128# VPWR_KA a_1720_1202# VGND sky130_fd_pr__nfet_05v0_nvt ad=0.265 pd=2.53 as=0.265 ps=2.53 w=1 l=0.9
X45 a_2080_128# VPWR_KA a_1720_1202# VGND sky130_fd_pr__nfet_05v0_nvt ad=0.265 pd=2.53 as=0.265 ps=2.53 w=1 l=0.9
X46 VGND RST_H a_28_14# VGND sky130_fd_pr__nfet_g5v0d10v5 ad=0.42 pd=3.28 as=0.795 ps=6.53 w=3 l=0.6
X47 OUT_H_N a_28_14# VGND VGND sky130_fd_pr__nfet_g5v0d10v5 ad=0.28 pd=2.56 as=0.14 ps=1.28 w=1 l=0.6
X48 a_2080_128# a_2251_2228# VGND VGND sky130_fd_pr__nfet_01v8_lvt ad=0.14 pd=1.28 as=0.265 ps=2.53 w=1 l=0.15
X49 VGND a_2251_2228# a_2080_128# VGND sky130_fd_pr__nfet_01v8_lvt ad=0.265 pd=2.53 as=0.14 ps=1.28 w=1 l=0.15
.ends

.subckt sky130_fd_io__com_cclat PU_DIS_H PD_DIS_H OE_H_N DRVLO_H_N DRVHI_H VGND VCC_IO
X0 a_947_1193# DRVLO_H_N VCC_IO VCC_IO sky130_fd_pr__pfet_g5v0d10v5 ad=1.33 pd=10.5 as=0.7 ps=5.28 w=5 l=0.5
X1 VCC_IO a_505_1193# a_3417_1193# VCC_IO sky130_fd_pr__pfet_g5v0d10v5 ad=0.7 pd=5.28 as=0.7 ps=5.28 w=5 l=0.6
X2 VCC_IO a_505_1193# a_3417_1193# VCC_IO sky130_fd_pr__pfet_g5v0d10v5 ad=0.7 pd=5.28 as=0.7 ps=5.28 w=5 l=0.6
X3 a_3417_1193# DRVHI_H a_4762_1193# VCC_IO sky130_fd_pr__pfet_g5v0d10v5 ad=0.7 pd=5.28 as=0.7 ps=5.28 w=5 l=0.5
X4 a_4762_1193# DRVHI_H a_3417_1193# VCC_IO sky130_fd_pr__pfet_g5v0d10v5 ad=0.7 pd=5.28 as=0.7 ps=5.28 w=5 l=0.5
X5 VGND DRVHI_H a_2361_1095# VGND sky130_fd_pr__nfet_g5v0d10v5 ad=0.42 pd=3.28 as=0.42 ps=3.28 w=3 l=0.6
X6 VCC_IO PU_DIS_H a_638_279# VCC_IO sky130_fd_pr__pfet_g5v0d10v5 ad=0.7 pd=5.28 as=1.33 ps=10.5 w=5 l=0.5
X7 VCC_IO a_2361_1095# DRVLO_H_N VCC_IO sky130_fd_pr__pfet_g5v0d10v5 ad=0.7 pd=5.28 as=0.7 ps=5.28 w=5 l=0.5
X8 DRVLO_H_N a_2361_1095# VCC_IO VCC_IO sky130_fd_pr__pfet_g5v0d10v5 ad=0.7 pd=5.28 as=0.7 ps=5.28 w=5 l=0.5
X9 DRVHI_H a_947_1193# VGND VGND sky130_fd_pr__nfet_g5v0d10v5 ad=0.42 pd=3.28 as=0.42 ps=3.28 w=3 l=0.6
X10 a_2361_1095# DRVHI_H VGND VGND sky130_fd_pr__nfet_g5v0d10v5 ad=0.42 pd=3.28 as=0.42 ps=3.28 w=3 l=0.6
X11 VCC_IO a_947_1193# DRVHI_H VCC_IO sky130_fd_pr__pfet_g5v0d10v5 ad=0.7 pd=5.28 as=0.7 ps=5.28 w=5 l=0.5
X12 DRVLO_H_N a_2361_1095# VCC_IO VCC_IO sky130_fd_pr__pfet_g5v0d10v5 ad=0.7 pd=5.28 as=0.7 ps=5.28 w=5 l=0.5
X13 VCC_IO a_2361_1095# DRVLO_H_N VCC_IO sky130_fd_pr__pfet_g5v0d10v5 ad=0.7 pd=5.28 as=0.7 ps=5.28 w=5 l=0.5
X14 DRVHI_H a_947_1193# VCC_IO VCC_IO sky130_fd_pr__pfet_g5v0d10v5 ad=0.7 pd=5.28 as=1.33 ps=10.5 w=5 l=0.5
X15 VCC_IO a_947_1193# DRVHI_H VCC_IO sky130_fd_pr__pfet_g5v0d10v5 ad=0.7 pd=5.28 as=0.7 ps=5.28 w=5 l=0.5
X16 VGND PU_DIS_H a_638_279# VGND sky130_fd_pr__nfet_g5v0d10v5 ad=0.42 pd=3.28 as=0.795 ps=6.53 w=3 l=0.6
X17 a_4762_1193# DRVHI_H a_3417_1193# VCC_IO sky130_fd_pr__pfet_g5v0d10v5 ad=0.7 pd=5.28 as=0.7 ps=5.28 w=5 l=0.5
X18 a_2361_1095# PD_DIS_H a_4762_1193# VCC_IO sky130_fd_pr__pfet_g5v0d10v5 ad=0.7 pd=5.28 as=0.7 ps=5.28 w=5 l=0.5
X19 VGND PD_DIS_H a_2361_1095# VGND sky130_fd_pr__nfet_g5v0d10v5 ad=0.795 pd=6.53 as=0.42 ps=3.28 w=3 l=0.6
X20 a_505_1193# a_176_279# VCC_IO VCC_IO sky130_fd_pr__pfet_g5v0d10v5 ad=1.33 pd=10.5 as=0.7 ps=5.28 w=5 l=0.5
X21 VCC_IO a_638_279# a_947_1193# VCC_IO sky130_fd_pr__pfet_g5v0d10v5 ad=0.7 pd=5.28 as=0.7 ps=5.28 w=5 l=0.5
X22 a_3417_1193# DRVHI_H a_4762_1193# VCC_IO sky130_fd_pr__pfet_g5v0d10v5 ad=0.7 pd=5.28 as=1.33 ps=10.5 w=5 l=0.5
X23 a_2361_1095# PD_DIS_H VGND VGND sky130_fd_pr__nfet_g5v0d10v5 ad=0.42 pd=3.28 as=0.42 ps=3.28 w=3 l=0.6
X24 VGND a_947_1193# DRVHI_H VGND sky130_fd_pr__nfet_g5v0d10v5 ad=0.42 pd=3.28 as=0.42 ps=3.28 w=3 l=0.6
X25 DRVLO_H_N a_2361_1095# VGND VGND sky130_fd_pr__nfet_g5v0d10v5 ad=0.42 pd=3.28 as=0.795 ps=6.53 w=3 l=0.6
X26 VGND a_947_1193# DRVHI_H VGND sky130_fd_pr__nfet_g5v0d10v5 ad=0.42 pd=3.28 as=0.42 ps=3.28 w=3 l=0.6
X27 a_987_279# a_176_279# VGND VGND sky130_fd_pr__nfet_g5v0d10v5 ad=0.42 pd=3.28 as=0.42 ps=3.28 w=3 l=0.6
X28 DRVHI_H a_947_1193# VCC_IO VCC_IO sky130_fd_pr__pfet_g5v0d10v5 ad=0.7 pd=5.28 as=0.7 ps=5.28 w=5 l=0.5
X29 a_4762_1193# PD_DIS_H a_2361_1095# VCC_IO sky130_fd_pr__pfet_g5v0d10v5 ad=0.7 pd=5.28 as=0.7 ps=5.28 w=5 l=0.5
X30 DRVHI_H a_947_1193# VGND VGND sky130_fd_pr__nfet_g5v0d10v5 ad=0.42 pd=3.28 as=0.42 ps=3.28 w=3 l=0.6
X31 VCC_IO OE_H_N a_176_279# VCC_IO sky130_fd_pr__pfet_g5v0d10v5 ad=0.7 pd=5.28 as=1.33 ps=10.5 w=5 l=0.5
X32 a_3417_1193# a_505_1193# VCC_IO VCC_IO sky130_fd_pr__pfet_g5v0d10v5 ad=0.7 pd=5.28 as=0.7 ps=5.28 w=5 l=0.6
X33 a_2361_1095# PD_DIS_H a_4762_1193# VCC_IO sky130_fd_pr__pfet_g5v0d10v5 ad=0.7 pd=5.28 as=0.7 ps=5.28 w=5 l=0.5
X34 a_987_279# DRVLO_H_N a_1628_279# VGND sky130_fd_pr__nfet_g5v0d10v5 ad=0.42 pd=3.28 as=0.795 ps=6.53 w=3 l=0.6
X35 VGND a_2361_1095# DRVLO_H_N VGND sky130_fd_pr__nfet_g5v0d10v5 ad=0.42 pd=3.28 as=0.42 ps=3.28 w=3 l=0.6
X36 DRVHI_H a_947_1193# VGND VGND sky130_fd_pr__nfet_g5v0d10v5 ad=0.42 pd=3.28 as=0.42 ps=3.28 w=3 l=0.6
X37 a_947_1193# a_176_279# VCC_IO VCC_IO sky130_fd_pr__pfet_g5v0d10v5 ad=0.7 pd=5.28 as=0.7 ps=5.28 w=5 l=0.5