* Copyright 2020 The SkyWater PDK Authors
*
* Licensed under the Apache License, Version 2.0 (the "License");
* you may not use this file except in compliance with the License.
* You may obtain a copy of the License at
*
*     https://www.apache.org/licenses/LICENSE-2.0
*
* Unless required by applicable law or agreed to in writing, software
* distributed under the License is distributed on an "AS IS" BASIS,
* WITHOUT WARRANTIES OR CONDITIONS OF ANY KIND, either express or implied.
* See the License for the specific language governing permissions and
* limitations under the License.
*
* SPDX-License-Identifier: Apache-2.0

.SUBCKT sky130_fd_sc_hvl__a21o_1 A1 A2 B1 VGND VNB VPB VPWR X
*.PININFO A1:I A2:I B1:I VGND:I VNB:I VPB:I VPWR:I X:O
MMPA0 pndA A1 VPWR VPB pfet_g5v0d10v5 m=1 w=1.5 l=0.5 mult=1 sa=0.265
+ sb=0.265 sd=0.28 topography=normal area=0.063 perim=1.14
MMPA1 pndA A2 VPWR VPB pfet_g5v0d10v5 m=1 w=1.5 l=0.5 mult=1 sa=0.265
+ sb=0.265 sd=0.28 topography=normal area=0.063 perim=1.14
MMPB0 y B1 pndA VPB pfet_g5v0d10v5 m=1 w=1.5 l=0.5 mult=1 sa=0.265
+ sb=0.265 sd=0.28 topography=normal area=0.063 perim=1.14
MMIPX X y VPWR VPB pfet_g5v0d10v5 m=1 w=1.5 l=0.5 mult=1 sa=0.265
+ sb=0.265 sd=0.28 topography=normal area=0.063 perim=1.14
MMNA0 y A1 sndA1 VNB nfet_g5v0d10v5 m=1 w=0.75 l=0.5 mult=1 sa=0.265
+ sb=0.265 sd=0.28 topography=normal area=0.063 perim=1.14
MMNA1 sndA1 A2 VGND VNB nfet_g5v0d10v5 m=1 w=0.75 l=0.5 mult=1
+ sa=0.265 sb=0.265 sd=0.28 topography=normal area=0.063 perim=1.14
MMNB0 y B1 VGND VNB nfet_g5v0d10v5 m=1 w=0.75 l=0.5 mult=1 sa=0.265
+ sb=0.265 sd=0.28 topography=normal area=0.063 perim=1.14
MMINX X y VGND VNB nfet_g5v0d10v5 m=1 w=0.75 l=0.5 mult=1 sa=0.265
+ sb=0.265 sd=0.28 topography=normal area=0.063 perim=1.14
.ENDS sky130_fd_sc_hvl__a21o_1


******* EOF

* Copyright 2020 The SkyWater PDK Authors
*
* Licensed under the Apache License, Version 2.0 (the "License");
* you may not use this file except in compliance with the License.
* You may obtain a copy of the License at
*
*     https://www.apache.org/licenses/LICENSE-2.0
*
* Unless required by applicable law or agreed to in writing, software
* distributed under the License is distributed on an "AS IS" BASIS,
* WITHOUT WARRANTIES OR CONDITIONS OF ANY KIND, either express or implied.
* See the License for the specific language governing permissions and
* limitations under the License.
*
* SPDX-License-Identifier: Apache-2.0

.SUBCKT sky130_fd_sc_hvl__a21oi_1 A1 A2 B1 VGND VNB VPB VPWR Y
*.PININFO A1:I A2:I B1:I VGND:I VNB:I VPB:I VPWR:I Y:O
MMPA0 pndA A1 VPWR VPB pfet_g5v0d10v5 m=1 w=1.5 l=0.5 mult=1 sa=0.265
+ sb=0.265 sd=0.28 topography=normal area=0.063 perim=1.14
MMPA1 pndA A2 VPWR VPB pfet_g5v0d10v5 m=1 w=1.5 l=0.5 mult=1 sa=0.265
+ sb=0.265 sd=0.28 topography=normal area=0.063 perim=1.14
MMPB0 Y B1 pndA VPB pfet_g5v0d10v5 m=1 w=1.5 l=0.5 mult=1 sa=0.265
+ sb=0.265 sd=0.28 topography=normal area=0.063 perim=1.14
MMNA0 Y A1 sndA1 VNB nfet_g5v0d10v5 m=1 w=0.75 l=0.5 mult=1 sa=0.265
+ sb=0.265 sd=0.28 topography=normal area=0.063 perim=1.14
MMNA1 sndA1 A2 VGND VNB nfet_g5v0d10v5 m=1 w=0.75 l=0.5 mult=1
+ sa=0.265 sb=0.265 sd=0.28 topography=normal area=0.063 perim=1.14
MMNB0 Y B1 VGND VNB nfet_g5v0d10v5 m=1 w=0.75 l=0.5 mult=1 sa=0.265
+ sb=0.265 sd=0.28 topography=normal area=0.063 perim=1.14
.ENDS sky130_fd_sc_hvl__a21oi_1


******* EOF

* Copyright 2020 The SkyWater PDK Authors
*
* Licensed under the Apache License, Version 2.0 (the "License");
* you may not use this file except in compliance with the License.
* You may obtain a copy of the License at
*
*     https://www.apache.org/licenses/LICENSE-2.0
*
* Unless required by applicable law or agreed to in writing, software
* distributed under the License is distributed on an "AS IS" BASIS,
* WITHOUT WARRANTIES OR CONDITIONS OF ANY KIND, either express or implied.
* See the License for the specific language governing permissions and
* limitations under the License.
*
* SPDX-License-Identifier: Apache-2.0

.SUBCKT sky130_fd_sc_hvl__a22o_1 A1 A2 B1 B2 VGND VNB VPB VPWR X
*.PININFO A1:I A2:I B1:I B2:I VGND:I VNB:I VPB:I VPWR:I X:O
MMPA0 pndA A1 VPWR VPB pfet_g5v0d10v5 m=1 w=1.5 l=0.5 mult=1 sa=0.265
+ sb=0.265 sd=0.28 topography=normal area=0.063 perim=1.14
MMPA1 pndA A2 VPWR VPB pfet_g5v0d10v5 m=1 w=1.5 l=0.5 mult=1 sa=0.265
+ sb=0.265 sd=0.28 topography=normal area=0.063 perim=1.14
MMPB0 y B1 pndA VPB pfet_g5v0d10v5 m=1 w=1.5 l=0.5 mult=1 sa=0.265
+ sb=0.265 sd=0.28 topography=normal area=0.063 perim=1.14
MMPB1 y B2 pndA VPB pfet_g5v0d10v5 m=1 w=1.5 l=0.5 mult=1 sa=0.265
+ sb=0.265 sd=0.28 topography=normal area=0.063 perim=1.14
MMIPX X y VPWR VPB pfet_g5v0d10v5 m=1 w=1.5 l=0.5 mult=1 sa=0.265
+ sb=0.265 sd=0.28 topography=normal area=0.063 perim=1.14
MMNA0 y A1 sndA1 VNB nfet_g5v0d10v5 m=1 w=0.75 l=0.5 mult=1 sa=0.265
+ sb=0.265 sd=0.28 topography=normal area=0.063 perim=1.14
MMNA1 sndA1 A2 VGND VNB nfet_g5v0d10v5 m=1 w=0.75 l=0.5 mult=1
+ sa=0.265 sb=0.265 sd=0.28 topography=normal area=0.063 perim=1.14
MMNB0 y B1 sndB1 VNB nfet_g5v0d10v5 m=1 w=0.75 l=0.5 mult=1 sa=0.265
+ sb=0.265 sd=0.28 topography=normal area=0.063 perim=1.14
MMNB1 sndB1 B2 VGND VNB nfet_g5v0d10v5 m=1 w=0.75 l=0.5 mult=1
+ sa=0.265 sb=0.265 sd=0.28 topography=normal area=0.063 perim=1.14
MMINX X y VGND VNB nfet_g5v0d10v5 m=1 w=0.75 l=0.5 mult=1 sa=0.265
+ sb=0.265 sd=0.28 topography=normal area=0.063 perim=1.14
.ENDS sky130_fd_sc_hvl__a22o_1


******* EOF

* Copyright 2020 The SkyWater PDK Authors
*
* Licensed under the Apache License, Version 2.0 (the "License");
* you may not use this file except in compliance with the License.
* You may obtain a copy of the License at
*
*     https://www.apache.org/licenses/LICENSE-2.0
*
* Unless required by applicable law or agreed to in writing, software
* distributed under the License is distributed on an "AS IS" BASIS,
* WITHOUT WARRANTIES OR CONDITIONS OF ANY KIND, either express or implied.
* See the License for the specific language governing permissions and
* limitations under the License.
*
* SPDX-License-Identifier: Apache-2.0

.SUBCKT sky130_fd_sc_hvl__a22oi_1 A1 A2 B1 B2 VGND VNB VPB VPWR Y
*.PININFO A1:I A2:I B1:I B2:I VGND:I VNB:I VPB:I VPWR:I Y:O
MMPA0 pndA A1 VPWR VPB pfet_g5v0d10v5 m=1 w=1.5 l=0.5 mult=1 sa=0.265
+ sb=0.265 sd=0.28 topography=normal area=0.063 perim=1.14
MMPA1 pndA A2 VPWR VPB pfet_g5v0d10v5 m=1 w=1.5 l=0.5 mult=1 sa=0.265
+ sb=0.265 sd=0.28 topography=normal area=0.063 perim=1.14
MMPB0 Y B1 pndA VPB pfet_g5v0d10v5 m=1 w=1.5 l=0.5 mult=1 sa=0.265
+ sb=0.265 sd=0.28 topography=normal area=0.063 perim=1.14
MMPB1 Y B2 pndA VPB pfet_g5v0d10v5 m=1 w=1.5 l=0.5 mult=1 sa=0.265
+ sb=0.265 sd=0.28 topography=normal area=0.063 perim=1.14
MMNA0 Y A1 sndA1 VNB nfet_g5v0d10v5 m=1 w=0.75 l=0.5 mult=1 sa=0.265
+ sb=0.265 sd=0.28 topography=normal area=0.063 perim=1.14
MMNA1 sndA1 A2 VGND VNB nfet_g5v0d10v5 m=1 w=0.75 l=0.5 mult=1
+ sa=0.265 sb=0.265 sd=0.28 topography=normal area=0.063 perim=1.14
MMNB0 Y B1 sndB1 VNB nfet_g5v0d10v5 m=1 w=0.75 l=0.5 mult=1 sa=0.265
+ sb=0.265 sd=0.28 topography=normal area=0.063 perim=1.14
MMNB1 sndB1 B2 VGND VNB nfet_g5v0d10v5 m=1 w=0.75 l=0.5 mult=1
+ sa=0.265 sb=0.265 sd=0.28 topography=normal area=0.063 perim=1.14
.ENDS sky130_fd_sc_hvl__a22oi_1


******* EOF

* Copyright 2020 The SkyWater PDK Authors
*
* Licensed under the Apache License, Version 2.0 (the "License");
* you may not use this file except in compliance with the License.
* You may obtain a copy of the License at
*
*     https://www.apache.org/licenses/LICENSE-2.0
*
* Unless required by applicable law or agreed to in writing, software
* distributed under the License is distributed on an "AS IS" BASIS,
* WITHOUT WARRANTIES OR CONDITIONS OF ANY KIND, either express or implied.
* See the License for the specific language governing permissions and
* limitations under the License.
*
* SPDX-License-Identifier: Apache-2.0

.SUBCKT sky130_fd_sc_hvl__and2_1 A B VGND VNB VPB VPWR X
*.PININFO A:I B:I VGND:I VNB:I VPB:I VPWR:I X:O
MMP0 y A VPWR VPB pfet_g5v0d10v5 m=1 w=0.42 l=0.5 mult=1 sa=0.265
+ sb=0.265 sd=0.28 topography=normal area=0.063 perim=1.14
MMP1 y B VPWR VPB pfet_g5v0d10v5 m=1 w=0.42 l=0.5 mult=1 sa=0.265
+ sb=0.265 sd=0.28 topography=normal area=0.063 perim=1.14
MMIP0 X y VPWR VPB pfet_g5v0d10v5 m=1 w=1.5 l=0.5 mult=1 sa=0.265
+ sb=0.265 sd=0.28 topography=normal area=0.063 perim=1.14
MMN0 y A sndA VNB nfet_g5v0d10v5 m=1 w=0.42 l=0.5 mult=1 sa=0.265
+ sb=0.265 sd=0.28 topography=normal area=0.063 perim=1.14
MMN1 sndA B VGND VNB nfet_g5v0d10v5 m=1 w=0.42 l=0.5 mult=1 sa=0.265
+ sb=0.265 sd=0.28 topography=normal area=0.063 perim=1.14
MMIN0 X y VGND VNB nfet_g5v0d10v5 m=1 w=0.75 l=0.5 mult=1 sa=0.265
+ sb=0.265 sd=0.28 topography=normal area=0.063 perim=1.14
.ENDS sky130_fd_sc_hvl__and2_1


******* EOF

* Copyright 2020 The SkyWater PDK Authors
*
* Licensed under the Apache License, Version 2.0 (the "License");
* you may not use this file except in compliance with the License.
* You may obtain a copy of the License at
*
*     https://www.apache.org/licenses/LICENSE-2.0
*
* Unless required by applicable law or agreed to in writing, software
* distributed under the License is distributed on an "AS IS" BASIS,
* WITHOUT WARRANTIES OR CONDITIONS OF ANY KIND, either express or implied.
* See the License for the specific language governing permissions and
* limitations under the License.
*
* SPDX-License-Identifier: Apache-2.0

.SUBCKT sky130_fd_sc_hvl__and3_1 A B C VGND VNB VPB VPWR X
*.PININFO A:I B:I C:I VGND:I VNB:I VPB:I VPWR:I X:O
MMP0 y A VPWR VPB pfet_g5v0d10v5 m=1 w=0.42 l=0.5 mult=1 sa=0.265
+ sb=0.265 sd=0.28 topography=normal area=0.063 perim=1.14
MMP1 y B VPWR VPB pfet_g5v0d10v5 m=1 w=0.42 l=0.5 mult=1 sa=0.265
+ sb=0.265 sd=0.28 topography=normal area=0.063 perim=1.14
MMP2 y C VPWR VPB pfet_g5v0d10v5 m=1 w=0.42 l=0.5 mult=1 sa=0.265
+ sb=0.265 sd=0.28 topography=normal area=0.063 perim=1.14
MMIP0 X y VPWR VPB pfet_g5v0d10v5 m=1 w=1.5 l=0.5 mult=1 sa=0.265
+ sb=0.265 sd=0.28 topography=normal area=0.063 perim=1.14
MMN0 y A sndA VNB nfet_g5v0d10v5 m=1 w=0.42 l=0.5 mult=1 sa=0.265
+ sb=0.265 sd=0.28 topography=normal area=0.063 perim=1.14
MMN1 sndA B sndB VNB nfet_g5v0d10v5 m=1 w=0.42 l=0.5 mult=1 sa=0.265
+ sb=0.265 sd=0.28 topography=normal area=0.063 perim=1.14
MMN2 sndB C VGND VNB nfet_g5v0d10v5 m=1 w=0.42 l=0.5 mult=1 sa=0.265
+ sb=0.265 sd=0.28 topography=normal area=0.063 perim=1.14
MMIN0 X y VGND VNB nfet_g5v0d10v5 m=1 w=0.75 l=0.5 mult=1 sa=0.265
+ sb=0.265 sd=0.28 topography=normal area=0.063 perim=1.14
.ENDS sky130_fd_sc_hvl__and3_1


******* EOF

* Copyright 2020 The SkyWater PDK Authors
*
* Licensed under the Apache License, Version 2.0 (the "License");
* you may not use this file except in compliance with the License.
* You may obtain a copy of the License at
*
*     https://www.apache.org/licenses/LICENSE-2.0
*
* Unless required by applicable law or agreed to in writing, software
* distributed under the License is distributed on an "AS IS" BASIS,
* WITHOUT WARRANTIES OR CONDITIONS OF ANY KIND, either express or implied.
* See the License for the specific language governing permissions and
* limitations under the License.
*
* SPDX-License-Identifier: Apache-2.0

.SUBCKT sky130_fd_sc_hvl__buf_1 A VGND VNB VPB VPWR X
*.PININFO A:I VGND:I VNB:I VPB:I VPWR:I X:O
MMIN1 Ab A VGND VNB nfet_g5v0d10v5 m=1 w=0.42 l=0.5 mult=1 sa=0.265
+ sb=0.265 sd=0.28 topography=normal area=0.063 perim=1.14
MMIN2 X Ab VGND VNB nfet_g5v0d10v5 m=1 w=0.75 l=0.5 mult=1 sa=0.265
+ sb=0.265 sd=0.28 topography=normal area=0.063 perim=1.14
MMIP1 Ab A VPWR VPB pfet_g5v0d10v5 m=1 w=0.75 l=0.5 mult=1 sa=0.265
+ sb=0.265 sd=0.28 topography=normal area=0.063 perim=1.14
MMIP2 X Ab VPWR VPB pfet_g5v0d10v5 m=1 w=1.5 l=0.5 mult=1 sa=0.265
+ sb=0.265 sd=0.28 topography=normal area=0.063 perim=1.14
.ENDS sky130_fd_sc_hvl__buf_1


******* EOF

* Copyright 2020 The SkyWater PDK Authors
*
* Licensed under the Apache License, Version 2.0 (the "License");
* you may not use this file except in compliance with the License.
* You may obtain a copy of the License at
*
*     https://www.apache.org/licenses/LICENSE-2.0
*
* Unless required by applicable law or agreed to in writing, software
* distributed under the License is distributed on an "AS IS" BASIS,
* WITHOUT WARRANTIES OR CONDITIONS OF ANY KIND, either express or implied.
* See the License for the specific language governing permissions and
* limitations under the License.
*
* SPDX-License-Identifier: Apache-2.0

.SUBCKT sky130_fd_sc_hvl__buf_2 A VGND VNB VPB VPWR X
*.PININFO A:I VGND:I VNB:I VPB:I VPWR:I X:O
MMIN1 Ab A VGND VNB nfet_g5v0d10v5 m=1 w=0.42 l=0.5 mult=1 sa=0.265
+ sb=0.265 sd=0.28 topography=normal area=0.063 perim=1.14
MMIN2 X Ab VGND VNB nfet_g5v0d10v5 m=2 w=0.75 l=0.5 mult=1 sa=0.265
+ sb=0.265 sd=0.28 topography=normal area=0.063 perim=1.14
MMIP1 Ab A VPWR VPB pfet_g5v0d10v5 m=1 w=0.75 l=0.5 mult=1 sa=0.265
+ sb=0.265 sd=0.28 topography=normal area=0.063 perim=1.14
MMIP2 X Ab VPWR VPB pfet_g5v0d10v5 m=2 w=1.5 l=0.5 mult=1 sa=0.265
+ sb=0.265 sd=0.28 topography=normal area=0.063 perim=1.14
.ENDS sky130_fd_sc_hvl__buf_2


******* EOF

* Copyright 2020 The SkyWater PDK Authors
*
* Licensed under the Apache License, Version 2.0 (the "License");
* you may not use this file except in compliance with the License.
* You may obtain a copy of the License at
*
*     https://www.apache.org/licenses/LICENSE-2.0
*
* Unless required by applicable law or agreed to in writing, software
* distributed under the License is distributed on an "AS IS" BASIS,
* WITHOUT WARRANTIES OR CONDITIONS OF ANY KIND, either express or implied.
* See the License for the specific language governing permissions and
* limitations under the License.
*
* SPDX-License-Identifier: Apache-2.0

.SUBCKT sky130_fd_sc_hvl__buf_4 A VGND VNB VPB VPWR X
*.PININFO A:I VGND:I VNB:I VPB:I VPWR:I X:O
MMIN1 Ab A VGND VNB nfet_g5v0d10v5 m=1 w=0.75 l=0.5 mult=1 sa=0.265
+ sb=0.265 sd=0.28 topography=normal area=0.063 perim=1.14
MMIN2 X Ab VGND VNB nfet_g5v0d10v5 m=4 w=0.75 l=0.5 mult=1 sa=0.265
+ sb=0.265 sd=0.28 topography=normal area=0.063 perim=1.14
MMIP1 Ab A VPWR VPB pfet_g5v0d10v5 m=1 w=1.5 l=0.5 mult=1 sa=0.265
+ sb=0.265 sd=0.28 topography=normal area=0.063 perim=1.14
MMIP2 X Ab VPWR VPB pfet_g5v0d10v5 m=4 w=1.5 l=0.5 mult=1 sa=0.265
+ sb=0.265 sd=0.28 topography=normal area=0.063 perim=1.14
.ENDS sky130_fd_sc_hvl__buf_4


******* EOF

* Copyright 2020 The SkyWater PDK Authors
*
* Licensed under the Apache License, Version 2.0 (the "License");
* you may not use this file except in compliance with the License.
* You may obtain a copy of the License at
*
*     https://www.apache.org/licenses/LICENSE-2.0
*
* Unless required by applicable law or agreed to in writing, software
* distributed under the License is distributed on an "AS IS" BASIS,
* WITHOUT WARRANTIES OR CONDITIONS OF ANY KIND, either express or implied.
* See the License for the specific language governing permissions and
* limitations under the License.
*
* SPDX-License-Identifier: Apache-2.0

.SUBCKT sky130_fd_sc_hvl__buf_8 A VGND VNB VPB VPWR X
*.PININFO A:I VGND:I VNB:I VPB:I VPWR:I X:O
MMIN1 Ab A VGND VNB nfet_g5v0d10v5 m=3 w=0.75 l=0.5 mult=1 sa=0.265
+ sb=0.265 sd=0.28 topography=normal area=0.063 perim=1.14
MMIN2 X Ab VGND VNB nfet_g5v0d10v5 m=8 w=0.75 l=0.5 mult=1 sa=0.265
+ sb=0.265 sd=0.28 topography=normal area=0.063 perim=1.14
MMIP1 Ab A VPWR VPB pfet_g5v0d10v5 m=3 w=1.5 l=0.5 mult=1 sa=0.265
+ sb=0.265 sd=0.28 topography=normal area=0.063 perim=1.14
MMIP2 X Ab VPWR VPB pfet_g5v0d10v5 m=8 w=1.5 l=0.5 mult=1 sa=0.265
+ sb=0.265 sd=0.28 topography=normal area=0.063 perim=1.14
.ENDS sky130_fd_sc_hvl__buf_8


******* EOF

* Copyright 2020 The SkyWater PDK Authors
*
* Licensed under the Apache License, Version 2.0 (the "License");
* you may not use this file except in compliance with the License.
* You may obtain a copy of the License at
*
*     https://www.apache.org/licenses/LICENSE-2.0
*
* Unless required by applicable law or agreed to in writing, software
* distributed under the License is distributed on an "AS IS" BASIS,
* WITHOUT WARRANTIES OR CONDITIONS OF ANY KIND, either express or implied.
* See the License for the specific language governing permissions and
* limitations under the License.
*
* SPDX-License-Identifier: Apache-2.0

.SUBCKT sky130_fd_sc_hvl__buf_16 A VGND VNB VPB VPWR X
*.PININFO A:I VGND:I VNB:I VPB:I VPWR:I X:O
MMIN1 Ab A VGND VNB nfet_g5v0d10v5 m=6 w=0.75 l=0.5 mult=1 sa=0.265
+ sb=0.265 sd=0.28 topography=normal area=0.063 perim=1.14
MMIN2 X Ab VGND VNB nfet_g5v0d10v5 m=16 w=0.75 l=0.5 mult=1 sa=0.265
+ sb=0.265 sd=0.28 topography=normal area=0.063 perim=1.14
MMIP1 Ab A VPWR VPB pfet_g5v0d10v5 m=6 w=1.5 l=0.5 mult=1 sa=0.265
+ sb=0.265 sd=0.28 topography=normal area=0.063 perim=1.14
MMIP2 X Ab VPWR VPB pfet_g5v0d10v5 m=16 w=1.5 l=0.5 mult=1 sa=0.265
+ sb=0.265 sd=0.28 topography=normal area=0.063 perim=1.14
.ENDS sky130_fd_sc_hvl__buf_16


******* EOF

* Copyright 2020 The SkyWater PDK Authors
*
* Licensed under the Apache License, Version 2.0 (the "License");
* you may not use this file except in compliance with the License.
* You may obtain a copy of the License at
*
*     https://www.apache.org/licenses/LICENSE-2.0
*
* Unless required by applicable law or agreed to in writing, software
* distributed under the License is distributed on an "AS IS" BASIS,
* WITHOUT WARRANTIES OR CONDITIONS OF ANY KIND, either express or implied.
* See the License for the specific language governing permissions and
* limitations under the License.
*
* SPDX-License-Identifier: Apache-2.0

.SUBCKT sky130_fd_sc_hvl__buf_32 A VGND VNB VPB VPWR X
*.PININFO A:I VGND:I VNB:I VPB:I VPWR:I X:O
MMIN1 Ab A VGND VNB nfet_g5v0d10v5 m=10 w=0.75 l=0.5 mult=1 sa=0.265
+ sb=0.265 sd=0.28 topography=normal area=0.063 perim=1.14
MMIN2 X Ab VGND VNB nfet_g5v0d10v5 m=32 w=0.75 l=0.5 mult=1 sa=0.265
+ sb=0.265 sd=0.28 topography=normal area=0.063 perim=1.14
MMIP1 Ab A VPWR VPB pfet_g5v0d10v5 m=10 w=1.5 l=0.5 mult=1 sa=0.265
+ sb=0.265 sd=0.28 topography=normal area=0.063 perim=1.14
MMIP2 X Ab VPWR VPB pfet_g5v0d10v5 m=32 w=1.5 l=0.5 mult=1 sa=0.265
+ sb=0.265 sd=0.28 topography=normal area=0.063 perim=1.14
.ENDS sky130_fd_sc_hvl__buf_32


******* EOF

* Copyright 2020 The SkyWater PDK Authors
*
* Licensed under the Apache License, Version 2.0 (the "License");
* you may not use this file except in compliance with the License.
* You may obtain a copy of the License at
*
*     https://www.apache.org/licenses/LICENSE-2.0
*
* Unless required by applicable law or agreed to in writing, software
* distributed under the License is distributed on an "AS IS" BASIS,
* WITHOUT WARRANTIES OR CONDITIONS OF ANY KIND, either express or implied.
* See the License for the specific language governing permissions and
* limitations under the License.
*
* SPDX-License-Identifier: Apache-2.0

.SUBCKT sky130_fd_sc_hvl__conb_1 VGND VNB VPB VPWR HI LO
*.PININFO VGND:I VNB:I VPB:I VPWR:I HI:O LO:O
rI12 VGND LO res_generic_po
rI11 HI VPWR res_generic_po
.ENDS sky130_fd_sc_hvl__conb_1


******* EOF

* Copyright 2020 The SkyWater PDK Authors
*
* Licensed under the Apache License, Version 2.0 (the "License");
* you may not use this file except in compliance with the License.
* You may obtain a copy of the License at
*
*     https://www.apache.org/licenses/LICENSE-2.0
*
* Unless required by applicable law or agreed to in writing, software
* distributed under the License is distributed on an "AS IS" BASIS,
* WITHOUT WARRANTIES OR CONDITIONS OF ANY KIND, either express or implied.
* See the License for the specific language governing permissions and
* limitations under the License.
*
* SPDX-License-Identifier: Apache-2.0

.SUBCKT sky130_fd_sc_hvl__decap_4 VGND VNB VPB VPWR
*.PININFO VGND:I VNB:I VPB:I VPWR:I
MI1 VGND VPWR VGND VNB nfet_g5v0d10v5 m=1 w=0.75 l=1.0 mult=1 sa=0.265
+ sb=0.265 sd=0.28 topography=normal area=0.063 perim=1.14
MI2 VPWR VGND VPWR VPB pfet_g5v0d10v5 m=1 w=1.0 l=1.0 mult=1 sa=0.265
+ sb=0.265 sd=0.28 topography=normal area=0.063 perim=1.14
.ENDS sky130_fd_sc_hvl__decap_4


******* EOF

* Copyright 2020 The SkyWater PDK Authors
*
* Licensed under the Apache License, Version 2.0 (the "License");
* you may not use this file except in compliance with the License.
* You may obtain a copy of the License at
*
*     https://www.apache.org/licenses/LICENSE-2.0
*
* Unless required by applicable law or agreed to in writing, software
* distributed under the License is distributed on an "AS IS" BASIS,
* WITHOUT WARRANTIES OR CONDITIONS OF ANY KIND, either express or implied.
* See the License for the specific language governing permissions and
* limitations under the License.
*
* SPDX-License-Identifier: Apache-2.0

.SUBCKT sky130_fd_sc_hvl__decap_8 VGND VNB VPB VPWR
*.PININFO VGND:I VNB:I VPB:I VPWR:I
MI1 VGND VPWR VGND VNB nfet_g5v0d10v5 m=2 w=0.75 l=1.0 mult=1 sa=0.265
+ sb=0.265 sd=0.28 topography=normal area=0.063 perim=1.14
MI2 VPWR VGND VPWR VPB pfet_g5v0d10v5 m=2 w=1.0 l=1.0 mult=1 sa=0.265
+ sb=0.265 sd=0.28 topography=normal area=0.063 perim=1.14
.ENDS sky130_fd_sc_hvl__decap_8


******* EOF

* Copyright 2020 The SkyWater PDK Authors
*
* Licensed under the Apache License, Version 2.0 (the "License");
* you may not use this file except in compliance with the License.
* You may obtain a copy of the License at
*
*     https://www.apache.org/licenses/LICENSE-2.0
*
* Unless required by applicable law or agreed to in writing, software
* distributed under the License is distributed on an "AS IS" BASIS,
* WITHOUT WARRANTIES OR CONDITIONS OF ANY KIND, either express or implied.
* See the License for the specific language governing permissions and
* limitations under the License.
*
* SPDX-License-Identifier: Apache-2.0

.SUBCKT sky130_fd_sc_hvl__dfrbp_1 CLK D RESET_B VGND VNB VPB VPWR Q Q_N
*.PININFO CLK:I D:I RESET_B:I VGND:I VNB:I VPB:I VPWR:I Q:O Q_N:O
MI651 Q_N s0 VGND VNB nfet_g5v0d10v5 m=1 w=0.75 l=0.5 mult=1 sa=0.265
+ sb=0.265 sd=0.28 topography=normal area=0.063 perim=1.14
MI46 clkpos clkneg VGND VNB nfet_g5v0d10v5 m=1 w=0.42 l=0.5 mult=1
+ sa=0.265 sb=0.265 sd=0.28 topography=normal area=0.063 perim=1.14
MI42 db clkneg M0 VNB nfet_g5v0d10v5 m=1 w=0.42 l=0.5 mult=1 sa=0.265
+ sb=0.265 sd=0.28 topography=normal area=0.063 perim=1.14
MI656 net062 s0 net052 VNB nfet_g5v0d10v5 m=1 w=0.42 l=0.5 mult=1
+ sa=0.265 sb=0.265 sd=0.28 topography=normal area=0.063 perim=1.14
MI657 net052 RESET_B VGND VNB nfet_g5v0d10v5 m=1 w=0.42 l=0.5 mult=1
+ sa=0.265 sb=0.265 sd=0.28 topography=normal area=0.063 perim=1.14
MI33 net51 RESET_B VGND VNB nfet_g5v0d10v5 m=1 w=0.42 l=0.5 mult=1
+ sa=0.265 sb=0.265 sd=0.28 topography=normal area=0.063 perim=1.14
MI4 M0 clkpos net43 VNB nfet_g5v0d10v5 m=1 w=0.42 l=0.5 mult=1
+ sa=0.265 sb=0.265 sd=0.28 topography=normal area=0.063 perim=1.14
MI34 net43 M1 net51 VNB nfet_g5v0d10v5 m=1 w=0.42 l=0.5 mult=1
+ sa=0.265 sb=0.265 sd=0.28 topography=normal area=0.063 perim=1.14
MI655 s0 clkneg net061 VNB nfet_g5v0d10v5 m=1 w=0.42 l=0.5 mult=1
+ sa=0.265 sb=0.265 sd=0.28 topography=normal area=0.063 perim=1.14
MI652 net069 s0 VGND VNB nfet_g5v0d10v5 m=1 w=0.42 l=0.5 mult=1
+ sa=0.265 sb=0.265 sd=0.28 topography=normal area=0.063 perim=1.14
MI653 Q net069 VGND VNB nfet_g5v0d10v5 m=1 w=0.75 l=0.5 mult=1
+ sa=0.265 sb=0.265 sd=0.28 topography=normal area=0.063 perim=1.14
MI654 net061 net062 VGND VNB nfet_g5v0d10v5 m=1 w=0.42 l=0.5 mult=1
+ sa=0.265 sb=0.265 sd=0.28 topography=normal area=0.063 perim=1.14
MI44 clkneg CLK VGND VNB nfet_g5v0d10v5 m=1 w=0.42 l=0.5 mult=1
+ sa=0.265 sb=0.265 sd=0.28 topography=normal area=0.063 perim=1.14
MI647 M1 M0 VGND VNB nfet_g5v0d10v5 m=1 w=0.75 l=0.5 mult=1 sa=0.265
+ sb=0.265 sd=0.28 topography=normal area=0.063 perim=1.14
MI39 db D net098 VNB nfet_g5v0d10v5 m=1 w=0.42 l=0.5 mult=1 sa=0.265
+ sb=0.265 sd=0.28 topography=normal area=0.063 perim=1.14
MI38 net098 RESET_B VGND VNB nfet_g5v0d10v5 m=1 w=0.42 l=0.5 mult=1
+ sa=0.265 sb=0.265 sd=0.28 topography=normal area=0.063 perim=1.14
MI649 M1 clkpos s0 VNB nfet_g5v0d10v5 m=1 w=0.75 l=0.5 mult=1 sa=0.265
+ sb=0.265 sd=0.28 topography=normal area=0.063 perim=1.14
MI47 clkpos clkneg VPWR VPB pfet_g5v0d10v5 m=1 w=0.75 l=0.5 mult=1
+ sa=0.265 sb=0.265 sd=0.28 topography=normal area=0.063 perim=1.14
MI43 db clkpos M0 VPB pfet_g5v0d10v5 m=1 w=0.42 l=0.5 mult=1 sa=0.265
+ sb=0.265 sd=0.28 topography=normal area=0.063 perim=1.14
MI662 net089 net062 VPWR VPB pfet_g5v0d10v5 m=1 w=0.42 l=0.5 mult=1
+ sa=0.265 sb=0.265 sd=0.28 topography=normal area=0.063 perim=1.14
MI659 net062 RESET_B VPWR VPB pfet_g5v0d10v5 m=1 w=0.42 l=0.5 mult=1
+ sa=0.265 sb=0.265 sd=0.28 topography=normal area=0.063 perim=1.14
MI664 s0 clkpos net089 VPB pfet_g5v0d10v5 m=1 w=0.42 l=0.5 mult=1
+ sa=0.265 sb=0.265 sd=0.28 topography=normal area=0.063 perim=1.14
MI658 net062 s0 VPWR VPB pfet_g5v0d10v5 m=1 w=0.42 l=0.5 mult=1
+ sa=0.265 sb=0.265 sd=0.28 topography=normal area=0.063 perim=1.14
MI30 net54 M1 VPWR VPB pfet_g5v0d10v5 m=1 w=0.42 l=0.5 mult=1 sa=0.265
+ sb=0.265 sd=0.28 topography=normal area=0.063 perim=1.14
MI31 M0 clkneg net54 VPB pfet_g5v0d10v5 m=1 w=0.42 l=0.5 mult=1
+ sa=0.265 sb=0.265 sd=0.28 topography=normal area=0.063 perim=1.14
MI32 M0 RESET_B VPWR VPB pfet_g5v0d10v5 m=1 w=0.42 l=0.5 mult=1
+ sa=0.265 sb=0.265 sd=0.28 topography=normal area=0.063 perim=1.14
MI663 net069 s0 VPWR VPB pfet_g5v0d10v5 m=1 w=0.75 l=0.5 mult=1
+ sa=0.265 sb=0.265 sd=0.28 topography=normal area=0.063 perim=1.14
MI660 Q net069 VPWR VPB pfet_g5v0d10v5 m=1 w=1.5 l=0.5 mult=1 sa=0.265
+ sb=0.265 sd=0.28 topography=normal area=0.063 perim=1.14
MI661 Q_N s0 VPWR VPB pfet_g5v0d10v5 m=1 w=1.5 l=0.5 mult=1 sa=0.265
+ sb=0.265 sd=0.28 topography=normal area=0.063 perim=1.14
MI45 clkneg CLK VPWR VPB pfet_g5v0d10v5 m=1 w=0.75 l=0.5 mult=1
+ sa=0.265 sb=0.265 sd=0.28 topography=normal area=0.063 perim=1.14
MI648 M1 M0 VPWR VPB pfet_g5v0d10v5 m=1 w=1.0 l=0.5 mult=1 sa=0.265
+ sb=0.265 sd=0.28 topography=normal area=0.063 perim=1.14
MI41 db RESET_B VPWR VPB pfet_g5v0d10v5 m=1 w=0.42 l=0.5 mult=1
+ sa=0.265 sb=0.265 sd=0.28 topography=normal area=0.063 perim=1.14
MI40 db D VPWR VPB pfet_g5v0d10v5 m=1 w=0.42 l=0.5 mult=1 sa=0.265
+ sb=0.265 sd=0.28 topography=normal area=0.063 perim=1.14
MI650 M1 clkneg s0 VPB pfet_g5v0d10v5 m=1 w=1.0 l=0.5 mult=1 sa=0.265
+ sb=0.265 sd=0.28 topography=normal area=0.063 perim=1.14
.ENDS sky130_fd_sc_hvl__dfrbp_1


******* EOF

* Copyright 2020 The SkyWater PDK Authors
*
* Licensed under the Apache License, Version 2.0 (the "License");
* you may not use this file except in compliance with the License.
* You may obtain a copy of the License at
*
*     https://www.apache.org/licenses/LICENSE-2.0
*
* Unless required by applicable law or agreed to in writing, software
* distributed under the License is distributed on an "AS IS" BASIS,
* WITHOUT WARRANTIES OR CONDITIONS OF ANY KIND, either express or implied.
* See the License for the specific language governing permissions and
* limitations under the License.
*
* SPDX-License-Identifier: Apache-2.0

.SUBCKT sky130_fd_sc_hvl__dfrtp_1 CLK D RESET_B VGND VNB VPB VPWR Q
*.PININFO CLK:I D:I RESET_B:I VGND:I VNB:I VPB:I VPWR:I Q:O
MI46 clkpos clkneg VGND VNB nfet_g5v0d10v5 m=1 w=0.42 l=0.5 mult=1
+ sa=0.265 sb=0.265 sd=0.28 topography=normal area=0.063 perim=1.14
MI42 db clkneg M0 VNB nfet_g5v0d10v5 m=1 w=0.42 l=0.5 mult=1 sa=0.265
+ sb=0.265 sd=0.28 topography=normal area=0.063 perim=1.14
MI656 net062 s0 net052 VNB nfet_g5v0d10v5 m=1 w=0.42 l=0.5 mult=1
+ sa=0.265 sb=0.265 sd=0.28 topography=normal area=0.063 perim=1.14
MI657 net052 RESET_B VGND VNB nfet_g5v0d10v5 m=1 w=0.42 l=0.5 mult=1
+ sa=0.265 sb=0.265 sd=0.28 topography=normal area=0.063 perim=1.14
MI33 net51 RESET_B VGND VNB nfet_g5v0d10v5 m=1 w=0.42 l=0.5 mult=1
+ sa=0.265 sb=0.265 sd=0.28 topography=normal area=0.063 perim=1.14
MI4 M0 clkpos net43 VNB nfet_g5v0d10v5 m=1 w=0.42 l=0.5 mult=1
+ sa=0.265 sb=0.265 sd=0.28 topography=normal area=0.063 perim=1.14
MI34 net43 M1 net51 VNB nfet_g5v0d10v5 m=1 w=0.42 l=0.5 mult=1
+ sa=0.265 sb=0.265 sd=0.28 topography=normal area=0.063 perim=1.14
MI655 s0 clkneg net061 VNB nfet_g5v0d10v5 m=1 w=0.42 l=0.5 mult=1
+ sa=0.265 sb=0.265 sd=0.28 topography=normal area=0.063 perim=1.14
MI652 net069 s0 VGND VNB nfet_g5v0d10v5 m=1 w=0.42 l=0.5 mult=1
+ sa=0.265 sb=0.265 sd=0.28 topography=normal area=0.063 perim=1.14
MI653 Q net069 VGND VNB nfet_g5v0d10v5 m=1 w=0.75 l=0.5 mult=1
+ sa=0.265 sb=0.265 sd=0.28 topography=normal area=0.063 perim=1.14
MI654 net061 net062 VGND VNB nfet_g5v0d10v5 m=1 w=0.42 l=0.5 mult=1
+ sa=0.265 sb=0.265 sd=0.28 topography=normal area=0.063 perim=1.14
MI44 clkneg CLK VGND VNB nfet_g5v0d10v5 m=1 w=0.42 l=0.5 mult=1
+ sa=0.265 sb=0.265 sd=0.28 topography=normal area=0.063 perim=1.14
MI647 M1 M0 VGND VNB nfet_g5v0d10v5 m=1 w=0.75 l=0.5 mult=1 sa=0.265
+ sb=0.265 sd=0.28 topography=normal area=0.063 perim=1.14
MI39 db D net098 VNB nfet_g5v0d10v5 m=1 w=0.42 l=0.5 mult=1 sa=0.265
+ sb=0.265 sd=0.28 topography=normal area=0.063 perim=1.14
MI38 net098 RESET_B VGND VNB nfet_g5v0d10v5 m=1 w=0.42 l=0.5 mult=1
+ sa=0.265 sb=0.265 sd=0.28 topography=normal area=0.063 perim=1.14
MI649 M1 clkpos s0 VNB nfet_g5v0d10v5 m=1 w=0.75 l=0.5 mult=1 sa=0.265
+ sb=0.265 sd=0.28 topography=normal area=0.063 perim=1.14
MI47 clkpos clkneg VPWR VPB pfet_g5v0d10v5 m=1 w=0.75 l=0.5 mult=1
+ sa=0.265 sb=0.265 sd=0.28 topography=normal area=0.063 perim=1.14
MI43 db clkpos M0 VPB pfet_g5v0d10v5 m=1 w=0.42 l=0.5 mult=1 sa=0.265
+ sb=0.265 sd=0.28 topography=normal area=0.063 perim=1.14
MI662 net089 net062 VPWR VPB pfet_g5v0d10v5 m=1 w=0.42 l=0.5 mult=1
+ sa=0.265 sb=0.265 sd=0.28 topography=normal area=0.063 perim=1.14
MI659 net062 RESET_B VPWR VPB pfet_g5v0d10v5 m=1 w=0.42 l=0.5 mult=1
+ sa=0.265 sb=0.265 sd=0.28 topography=normal area=0.063 perim=1.14
MI664 s0 clkpos net089 VPB pfet_g5v0d10v5 m=1 w=0.42 l=0.5 mult=1