* Copyright 2020 The SkyWater PDK Authors
*
* Licensed under the Apache License, Version 2.0 (the "License");
* you may not use this file except in compliance with the License.
* You may obtain a copy of the License at
*
*     https://www.apache.org/licenses/LICENSE-2.0
*
* Unless required by applicable law or agreed to in writing, software
* distributed under the License is distributed on an "AS IS" BASIS,
* WITHOUT WARRANTIES OR CONDITIONS OF ANY KIND, either express or implied.
* See the License for the specific language governing permissions and
* limitations under the License.
*
* SPDX-License-Identifier: Apache-2.0


.subckt sky130_fd_sc_hd__a2bb2o_1 A1_N A2_N B1 B2 VGND VNB VPB VPWR X
X0 a_489_413# B2 VPWR VPB sky130_fd_pr__pfet_01v8_hvt w=420000u l=150000u
X1 VGND A1_N a_226_47# VNB sky130_fd_pr__nfet_01v8 w=420000u l=150000u
X2 a_76_199# B2 a_556_47# VNB sky130_fd_pr__nfet_01v8 w=420000u l=150000u
X3 VPWR A1_N a_226_297# VPB sky130_fd_pr__pfet_01v8_hvt w=420000u l=150000u
X4 a_226_297# A2_N a_226_47# VPB sky130_fd_pr__pfet_01v8_hvt w=420000u l=150000u
X5 VGND a_226_47# a_76_199# VNB sky130_fd_pr__nfet_01v8 w=420000u l=150000u
X6 X a_76_199# VGND VNB sky130_fd_pr__nfet_01v8 w=650000u l=150000u
X7 X a_76_199# VPWR VPB sky130_fd_pr__pfet_01v8_hvt w=1e+06u l=150000u
X8 a_76_199# a_226_47# a_489_413# VPB sky130_fd_pr__pfet_01v8_hvt w=420000u l=150000u
X9 a_226_47# A2_N VGND VNB sky130_fd_pr__nfet_01v8 w=420000u l=150000u
X10 VPWR B1 a_489_413# VPB sky130_fd_pr__pfet_01v8_hvt w=420000u l=150000u
X11 a_556_47# B1 VGND VNB sky130_fd_pr__nfet_01v8 w=420000u l=150000u
.ends


******* EOF

* Copyright 2020 The SkyWater PDK Authors
*
* Licensed under the Apache License, Version 2.0 (the "License");
* you may not use this file except in compliance with the License.
* You may obtain a copy of the License at
*
*     https://www.apache.org/licenses/LICENSE-2.0
*
* Unless required by applicable law or agreed to in writing, software
* distributed under the License is distributed on an "AS IS" BASIS,
* WITHOUT WARRANTIES OR CONDITIONS OF ANY KIND, either express or implied.
* See the License for the specific language governing permissions and
* limitations under the License.
*
* SPDX-License-Identifier: Apache-2.0


.subckt sky130_fd_sc_hd__a2bb2o_2 A1_N A2_N B1 B2 VGND VNB VPB VPWR X
X0 VGND A1_N a_313_47# VNB sky130_fd_pr__nfet_01v8 w=420000u l=150000u
X1 X a_82_21# VPWR VPB sky130_fd_pr__pfet_01v8_hvt w=1e+06u l=150000u
X2 a_82_21# a_313_47# a_574_369# VPB sky130_fd_pr__pfet_01v8_hvt w=640000u l=150000u
X3 a_82_21# B2 a_646_47# VNB sky130_fd_pr__nfet_01v8 w=420000u l=150000u
X4 VGND a_313_47# a_82_21# VNB sky130_fd_pr__nfet_01v8 w=420000u l=150000u
X5 VPWR a_82_21# X VPB sky130_fd_pr__pfet_01v8_hvt w=1e+06u l=150000u
X6 VPWR B1 a_574_369# VPB sky130_fd_pr__pfet_01v8_hvt w=640000u l=150000u
X7 a_574_369# B2 VPWR VPB sky130_fd_pr__pfet_01v8_hvt w=640000u l=150000u
X8 VPWR A1_N a_313_297# VPB sky130_fd_pr__pfet_01v8_hvt w=640000u l=150000u
X9 a_313_297# A2_N a_313_47# VPB sky130_fd_pr__pfet_01v8_hvt w=640000u l=150000u
X10 VGND a_82_21# X VNB sky130_fd_pr__nfet_01v8 w=650000u l=150000u
X11 a_646_47# B1 VGND VNB sky130_fd_pr__nfet_01v8 w=420000u l=150000u
X12 X a_82_21# VGND VNB sky130_fd_pr__nfet_01v8 w=650000u l=150000u
X13 a_313_47# A2_N VGND VNB sky130_fd_pr__nfet_01v8 w=420000u l=150000u
.ends


******* EOF

* Copyright 2020 The SkyWater PDK Authors
*
* Licensed under the Apache License, Version 2.0 (the "License");
* you may not use this file except in compliance with the License.
* You may obtain a copy of the License at
*
*     https://www.apache.org/licenses/LICENSE-2.0
*
* Unless required by applicable law or agreed to in writing, software
* distributed under the License is distributed on an "AS IS" BASIS,
* WITHOUT WARRANTIES OR CONDITIONS OF ANY KIND, either express or implied.
* See the License for the specific language governing permissions and
* limitations under the License.
*
* SPDX-License-Identifier: Apache-2.0


.subckt sky130_fd_sc_hd__a2bb2o_4 A1_N A2_N B1 B2 VGND VNB VPB VPWR X
X0 VGND A2_N a_415_21# VNB sky130_fd_pr__nfet_01v8 w=650000u l=150000u
X1 VGND a_193_47# X VNB sky130_fd_pr__nfet_01v8 w=650000u l=150000u
X2 VGND a_415_21# a_193_47# VNB sky130_fd_pr__nfet_01v8 w=650000u l=150000u
X3 VPWR a_193_47# X VPB sky130_fd_pr__pfet_01v8_hvt w=1e+06u l=150000u
X4 VGND a_193_47# X VNB sky130_fd_pr__nfet_01v8 w=650000u l=150000u
X5 a_193_47# a_415_21# a_27_297# VPB sky130_fd_pr__pfet_01v8_hvt w=1e+06u l=150000u
X6 a_415_21# A2_N VGND VNB sky130_fd_pr__nfet_01v8 w=650000u l=150000u
X7 a_109_47# B1 VGND VNB sky130_fd_pr__nfet_01v8 w=650000u l=150000u
X8 a_193_47# a_415_21# VGND VNB sky130_fd_pr__nfet_01v8 w=650000u l=150000u
X9 X a_193_47# VPWR VPB sky130_fd_pr__pfet_01v8_hvt w=1e+06u l=150000u
X10 VGND A1_N a_415_21# VNB sky130_fd_pr__nfet_01v8 w=650000u l=150000u
X11 VPWR a_193_47# X VPB sky130_fd_pr__pfet_01v8_hvt w=1e+06u l=150000u
X12 a_193_47# B2 a_109_47# VNB sky130_fd_pr__nfet_01v8 w=650000u l=150000u
X13 a_717_297# A1_N VPWR VPB sky130_fd_pr__pfet_01v8_hvt w=1e+06u l=150000u
X14 a_109_47# B2 a_193_47# VNB sky130_fd_pr__nfet_01v8 w=650000u l=150000u
X15 a_27_297# B2 VPWR VPB sky130_fd_pr__pfet_01v8_hvt w=1e+06u l=150000u
X16 VPWR A1_N a_717_297# VPB sky130_fd_pr__pfet_01v8_hvt w=1e+06u l=150000u
X17 VGND B1 a_109_47# VNB sky130_fd_pr__nfet_01v8 w=650000u l=150000u
X18 a_415_21# A2_N a_717_297# VPB sky130_fd_pr__pfet_01v8_hvt w=1e+06u l=150000u
X19 a_27_297# a_415_21# a_193_47# VPB sky130_fd_pr__pfet_01v8_hvt w=1e+06u l=150000u
X20 a_27_297# B1 VPWR VPB sky130_fd_pr__pfet_01v8_hvt w=1e+06u l=150000u
X21 VPWR B2 a_27_297# VPB sky130_fd_pr__pfet_01v8_hvt w=1e+06u l=150000u
X22 a_415_21# A1_N VGND VNB sky130_fd_pr__nfet_01v8 w=650000u l=150000u
X23 a_717_297# A2_N a_415_21# VPB sky130_fd_pr__pfet_01v8_hvt w=1e+06u l=150000u
X24 X a_193_47# VGND VNB sky130_fd_pr__nfet_01v8 w=650000u l=150000u
X25 VPWR B1 a_27_297# VPB sky130_fd_pr__pfet_01v8_hvt w=1e+06u l=150000u
X26 X a_193_47# VPWR VPB sky130_fd_pr__pfet_01v8_hvt w=1e+06u l=150000u
X27 X a_193_47# VGND VNB sky130_fd_pr__nfet_01v8 w=650000u l=150000u
.ends


******* EOF

* Copyright 2020 The SkyWater PDK Authors
*
* Licensed under the Apache License, Version 2.0 (the "License");
* you may not use this file except in compliance with the License.
* You may obtain a copy of the License at
*
*     https://www.apache.org/licenses/LICENSE-2.0
*
* Unless required by applicable law or agreed to in writing, software
* distributed under the License is distributed on an "AS IS" BASIS,
* WITHOUT WARRANTIES OR CONDITIONS OF ANY KIND, either express or implied.
* See the License for the specific language governing permissions and
* limitations under the License.
*
* SPDX-License-Identifier: Apache-2.0


.subckt sky130_fd_sc_hd__a2bb2oi_1 A1_N A2_N B1 B2 VGND VNB VPB VPWR Y
X0 a_109_297# A2_N a_109_47# VPB sky130_fd_pr__pfet_01v8_hvt w=1e+06u l=150000u
X1 a_481_47# B1 VGND VNB sky130_fd_pr__nfet_01v8 w=650000u l=150000u
X2 Y B2 a_481_47# VNB sky130_fd_pr__nfet_01v8 w=650000u l=150000u
X3 Y a_109_47# a_397_297# VPB sky130_fd_pr__pfet_01v8_hvt w=1e+06u l=150000u
X4 VPWR B1 a_397_297# VPB sky130_fd_pr__pfet_01v8_hvt w=1e+06u l=150000u
X5 a_397_297# B2 VPWR VPB sky130_fd_pr__pfet_01v8_hvt w=1e+06u l=150000u
X6 a_109_47# A2_N VGND VNB sky130_fd_pr__nfet_01v8 w=650000u l=150000u
X7 VGND A1_N a_109_47# VNB sky130_fd_pr__nfet_01v8 w=650000u l=150000u
X8 VPWR A1_N a_109_297# VPB sky130_fd_pr__pfet_01v8_hvt w=1e+06u l=150000u
X9 VGND a_109_47# Y VNB sky130_fd_pr__nfet_01v8 w=650000u l=150000u
.ends


******* EOF

* Copyright 2020 The SkyWater PDK Authors
*
* Licensed under the Apache License, Version 2.0 (the "License");
* you may not use this file except in compliance with the License.
* You may obtain a copy of the License at
*
*     https://www.apache.org/licenses/LICENSE-2.0
*
* Unless required by applicable law or agreed to in writing, software
* distributed under the License is distributed on an "AS IS" BASIS,
* WITHOUT WARRANTIES OR CONDITIONS OF ANY KIND, either express or implied.
* See the License for the specific language governing permissions and
* limitations under the License.
*
* SPDX-License-Identifier: Apache-2.0


.subckt sky130_fd_sc_hd__a2bb2oi_2 A1_N A2_N B1 B2 VGND VNB VPB VPWR Y
X0 a_136_47# B2 Y VNB sky130_fd_pr__nfet_01v8 w=650000u l=150000u
X1 VPWR B2 a_54_297# VPB sky130_fd_pr__pfet_01v8_hvt w=1e+06u l=150000u
X2 a_442_21# A2_N VGND VNB sky130_fd_pr__nfet_01v8 w=650000u l=150000u
X3 Y a_442_21# VGND VNB sky130_fd_pr__nfet_01v8 w=650000u l=150000u
X4 VGND A2_N a_442_21# VNB sky130_fd_pr__nfet_01v8 w=650000u l=150000u
X5 VGND A1_N a_442_21# VNB sky130_fd_pr__nfet_01v8 w=650000u l=150000u
X6 a_54_297# B1 VPWR VPB sky130_fd_pr__pfet_01v8_hvt w=1e+06u l=150000u
X7 VGND a_442_21# Y VNB sky130_fd_pr__nfet_01v8 w=650000u l=150000u
X8 a_662_297# A1_N VPWR VPB sky130_fd_pr__pfet_01v8_hvt w=1e+06u l=150000u
X9 a_442_21# A1_N VGND VNB sky130_fd_pr__nfet_01v8 w=650000u l=150000u
X10 a_136_47# B1 VGND VNB sky130_fd_pr__nfet_01v8 w=650000u l=150000u
X11 VPWR B1 a_54_297# VPB sky130_fd_pr__pfet_01v8_hvt w=1e+06u l=150000u
X12 VPWR A1_N a_662_297# VPB sky130_fd_pr__pfet_01v8_hvt w=1e+06u l=150000u
X13 Y a_442_21# a_54_297# VPB sky130_fd_pr__pfet_01v8_hvt w=1e+06u l=150000u
X14 a_442_21# A2_N a_662_297# VPB sky130_fd_pr__pfet_01v8_hvt w=1e+06u l=150000u
X15 Y B2 a_136_47# VNB sky130_fd_pr__nfet_01v8 w=650000u l=150000u
X16 a_54_297# B2 VPWR VPB sky130_fd_pr__pfet_01v8_hvt w=1e+06u l=150000u
X17 VGND B1 a_136_47# VNB sky130_fd_pr__nfet_01v8 w=650000u l=150000u
X18 a_54_297# a_442_21# Y VPB sky130_fd_pr__pfet_01v8_hvt w=1e+06u l=150000u
X19 a_662_297# A2_N a_442_21# VPB sky130_fd_pr__pfet_01v8_hvt w=1e+06u l=150000u
.ends


******* EOF

* Copyright 2020 The SkyWater PDK Authors
*
* Licensed under the Apache License, Version 2.0 (the "License");
* you may not use this file except in compliance with the License.
* You may obtain a copy of the License at
*
*     https://www.apache.org/licenses/LICENSE-2.0
*
* Unless required by applicable law or agreed to in writing, software
* distributed under the License is distributed on an "AS IS" BASIS,
* WITHOUT WARRANTIES OR CONDITIONS OF ANY KIND, either express or implied.
* See the License for the specific language governing permissions and
* limitations under the License.
*
* SPDX-License-Identifier: Apache-2.0


.subckt sky130_fd_sc_hd__a2bb2oi_4 A1_N A2_N B1 B2 VGND VNB VPB VPWR Y
X0 Y a_751_21# a_27_297# VPB sky130_fd_pr__pfet_01v8_hvt w=1e+06u l=150000u
X1 VPWR A1_N a_1139_297# VPB sky130_fd_pr__pfet_01v8_hvt w=1e+06u l=150000u
X2 a_751_21# A2_N a_1139_297# VPB sky130_fd_pr__pfet_01v8_hvt w=1e+06u l=150000u
X3 Y B2 a_109_47# VNB sky130_fd_pr__nfet_01v8 w=650000u l=150000u
X4 VGND A1_N a_751_21# VNB sky130_fd_pr__nfet_01v8 w=650000u l=150000u
X5 Y B2 a_109_47# VNB sky130_fd_pr__nfet_01v8 w=650000u l=150000u
X6 a_1139_297# A1_N VPWR VPB sky130_fd_pr__pfet_01v8_hvt w=1e+06u l=150000u
X7 a_751_21# A2_N VGND VNB sky130_fd_pr__nfet_01v8 w=650000u l=150000u
X8 a_27_297# a_751_21# Y VPB sky130_fd_pr__pfet_01v8_hvt w=1e+06u l=150000u
X9 VPWR B2 a_27_297# VPB sky130_fd_pr__pfet_01v8_hvt w=1e+06u l=150000u
X10 VPWR B1 a_27_297# VPB sky130_fd_pr__pfet_01v8_hvt w=1e+06u l=150000u
X11 a_109_47# B2 Y VNB sky130_fd_pr__nfet_01v8 w=650000u l=150000u
X12 VGND A2_N a_751_21# VNB sky130_fd_pr__nfet_01v8 w=650000u l=150000u
X13 Y a_751_21# a_27_297# VPB sky130_fd_pr__pfet_01v8_hvt w=1e+06u l=150000u
X14 VGND a_751_21# Y VNB sky130_fd_pr__nfet_01v8 w=650000u l=150000u
X15 a_751_21# A2_N a_1139_297# VPB sky130_fd_pr__pfet_01v8_hvt w=1e+06u l=150000u
X16 VGND A2_N a_751_21# VNB sky130_fd_pr__nfet_01v8 w=650000u l=150000u
X17 a_27_297# B2 VPWR VPB sky130_fd_pr__pfet_01v8_hvt w=1e+06u l=150000u
X18 a_27_297# a_751_21# Y VPB sky130_fd_pr__pfet_01v8_hvt w=1e+06u l=150000u
X19 a_109_47# B2 Y VNB sky130_fd_pr__nfet_01v8 w=650000u l=150000u
X20 a_1139_297# A2_N a_751_21# VPB sky130_fd_pr__pfet_01v8_hvt w=1e+06u l=150000u
X21 Y a_751_21# VGND VNB sky130_fd_pr__nfet_01v8 w=650000u l=150000u
X22 a_751_21# A1_N VGND VNB sky130_fd_pr__nfet_01v8 w=650000u l=150000u
X23 Y a_751_21# VGND VNB sky130_fd_pr__nfet_01v8 w=650000u l=150000u
X24 VGND a_751_21# Y VNB sky130_fd_pr__nfet_01v8 w=650000u l=150000u
X25 VGND B1 a_109_47# VNB sky130_fd_pr__nfet_01v8 w=650000u l=150000u
X26 a_109_47# B1 VGND VNB sky130_fd_pr__nfet_01v8 w=650000u l=150000u
X27 a_27_297# B1 VPWR VPB sky130_fd_pr__pfet_01v8_hvt w=1e+06u l=150000u
X28 VGND B1 a_109_47# VNB sky130_fd_pr__nfet_01v8 w=650000u l=150000u
X29 VGND A1_N a_751_21# VNB sky130_fd_pr__nfet_01v8 w=650000u l=150000u
X30 a_27_297# B2 VPWR VPB sky130_fd_pr__pfet_01v8_hvt w=1e+06u l=150000u
X31 a_27_297# B1 VPWR VPB sky130_fd_pr__pfet_01v8_hvt w=1e+06u l=150000u
X32 a_1139_297# A1_N VPWR VPB sky130_fd_pr__pfet_01v8_hvt w=1e+06u l=150000u
X33 VPWR B1 a_27_297# VPB sky130_fd_pr__pfet_01v8_hvt w=1e+06u l=150000u
X34 a_1139_297# A2_N a_751_21# VPB sky130_fd_pr__pfet_01v8_hvt w=1e+06u l=150000u
X35 a_109_47# B1 VGND VNB sky130_fd_pr__nfet_01v8 w=650000u l=150000u
X36 a_751_21# A1_N VGND VNB sky130_fd_pr__nfet_01v8 w=650000u l=150000u
X37 a_751_21# A2_N VGND VNB sky130_fd_pr__nfet_01v8 w=650000u l=150000u
X38 VPWR B2 a_27_297# VPB sky130_fd_pr__pfet_01v8_hvt w=1e+06u l=150000u
X39 VPWR A1_N a_1139_297# VPB sky130_fd_pr__pfet_01v8_hvt w=1e+06u l=150000u
.ends


******* EOF

* Copyright 2020 The SkyWater PDK Authors
*
* Licensed under the Apache License, Version 2.0 (the "License");
* you may not use this file except in compliance with the License.
* You may obtain a copy of the License at
*
*     https://www.apache.org/licenses/LICENSE-2.0
*
* Unless required by applicable law or agreed to in writing, software
* distributed under the License is distributed on an "AS IS" BASIS,
* WITHOUT WARRANTIES OR CONDITIONS OF ANY KIND, either express or implied.
* See the License for the specific language governing permissions and
* limitations under the License.
*
* SPDX-License-Identifier: Apache-2.0


.subckt sky130_fd_sc_hd__a21bo_1 A1 A2 B1_N VGND VNB VPB VPWR X
X0 VPWR a_215_297# X VPB sky130_fd_pr__pfet_01v8_hvt w=1e+06u l=150000u
X1 a_215_297# a_27_413# a_298_297# VPB sky130_fd_pr__pfet_01v8_hvt w=1e+06u l=150000u
X2 VPWR A2 a_298_297# VPB sky130_fd_pr__pfet_01v8_hvt w=1e+06u l=150000u
X3 a_298_297# A1 VPWR VPB sky130_fd_pr__pfet_01v8_hvt w=1e+06u l=150000u
X4 a_215_297# A1 a_382_47# VNB sky130_fd_pr__nfet_01v8 w=650000u l=150000u
X5 a_27_413# B1_N VGND VNB sky130_fd_pr__nfet_01v8 w=420000u l=150000u
X6 a_27_413# B1_N VPWR VPB sky130_fd_pr__pfet_01v8_hvt w=420000u l=150000u
X7 VGND a_215_297# X VNB sky130_fd_pr__nfet_01v8 w=650000u l=150000u
X8 a_382_47# A2 VGND VNB sky130_fd_pr__nfet_01v8 w=650000u l=150000u
X9 VGND a_27_413# a_215_297# VNB sky130_fd_pr__nfet_01v8 w=650000u l=150000u
.ends


******* EOF

* Copyright 2020 The SkyWater PDK Authors
*
* Licensed under the Apache License, Version 2.0 (the "License");
* you may not use this file except in compliance with the License.
* You may obtain a copy of the License at
*
*     https://www.apache.org/licenses/LICENSE-2.0
*
* Unless required by applicable law or agreed to in writing, software
* distributed under the License is distributed on an "AS IS" BASIS,
* WITHOUT WARRANTIES OR CONDITIONS OF ANY KIND, either express or implied.
* See the License for the specific language governing permissions and
* limitations under the License.
*
* SPDX-License-Identifier: Apache-2.0


.subckt sky130_fd_sc_hd__a21bo_2 A1 A2 B1_N VGND VNB VPB VPWR X
X0 X a_79_21# VGND VNB sky130_fd_pr__nfet_01v8 w=650000u l=150000u
X1 a_79_21# A1 a_581_47# VNB sky130_fd_pr__nfet_01v8 w=650000u l=150000u
X2 VPWR B1_N a_297_93# VPB sky130_fd_pr__pfet_01v8_hvt w=420000u l=150000u
X3 VGND a_297_93# a_79_21# VNB sky130_fd_pr__nfet_01v8 w=650000u l=150000u
X4 VGND a_79_21# X VNB sky130_fd_pr__nfet_01v8 w=650000u l=150000u
X5 a_485_297# A1 VPWR VPB sky130_fd_pr__pfet_01v8_hvt w=1e+06u l=150000u
X6 a_581_47# A2 VGND VNB sky130_fd_pr__nfet_01v8 w=650000u l=150000u
X7 VPWR a_79_21# X VPB sky130_fd_pr__pfet_01v8_hvt w=1e+06u l=150000u
X8 a_79_21# a_297_93# a_485_297# VPB sky130_fd_pr__pfet_01v8_hvt w=1e+06u l=150000u
X9 VPWR A2 a_485_297# VPB sky130_fd_pr__pfet_01v8_hvt w=1e+06u l=150000u
X10 X a_79_21# VPWR VPB sky130_fd_pr__pfet_01v8_hvt w=1e+06u l=150000u
X11 VGND B1_N a_297_93# VNB sky130_fd_pr__nfet_01v8 w=420000u l=150000u
.ends


******* EOF

* Copyright 2020 The SkyWater PDK Authors
*
* Licensed under the Apache License, Version 2.0 (the "License");
* you may not use this file except in compliance with the License.
* You may obtain a copy of the License at
*
*     https://www.apache.org/licenses/LICENSE-2.0
*
* Unless required by applicable law or agreed to in writing, software
* distributed under the License is distributed on an "AS IS" BASIS,
* WITHOUT WARRANTIES OR CONDITIONS OF ANY KIND, either express or implied.
* See the License for the specific language governing permissions and
* limitations under the License.
*
* SPDX-License-Identifier: Apache-2.0


.subckt sky130_fd_sc_hd__a21bo_4 A1 A2 B1_N VGND VNB VPB VPWR X
X0 a_861_47# A1 a_205_21# VNB sky130_fd_pr__nfet_01v8 w=650000u l=150000u
X1 a_205_21# A1 a_1021_47# VNB sky130_fd_pr__nfet_01v8 w=650000u l=150000u
X2 a_205_21# a_42_47# a_603_297# VPB sky130_fd_pr__pfet_01v8_hvt w=1e+06u l=150000u
X3 VPWR A1 a_603_297# VPB sky130_fd_pr__pfet_01v8_hvt w=1e+06u l=150000u
X4 a_42_47# B1_N VPWR VPB sky130_fd_pr__pfet_01v8_hvt w=1e+06u l=150000u
X5 VPWR a_205_21# X VPB sky130_fd_pr__pfet_01v8_hvt w=1e+06u l=150000u
X6 X a_205_21# VPWR VPB sky130_fd_pr__pfet_01v8_hvt w=1e+06u l=150000u
X7 a_603_297# a_42_47# a_205_21# VPB sky130_fd_pr__pfet_01v8_hvt w=1e+06u l=150000u
X8 a_603_297# A2 VPWR VPB sky130_fd_pr__pfet_01v8_hvt w=1e+06u l=150000u
X9 X a_205_21# VGND VNB sky130_fd_pr__nfet_01v8 w=650000u l=150000u
X10 VPWR A2 a_603_297# VPB sky130_fd_pr__pfet_01v8_hvt w=1e+06u l=150000u
X11 a_205_21# a_42_47# VGND VNB sky130_fd_pr__nfet_01v8 w=650000u l=150000u
X12 VPWR a_205_21# X VPB sky130_fd_pr__pfet_01v8_hvt w=1e+06u l=150000u
X13 X a_205_21# VPWR VPB sky130_fd_pr__pfet_01v8_hvt w=1e+06u l=150000u
X14 VGND A2 a_861_47# VNB sky130_fd_pr__nfet_01v8 w=650000u l=150000u
X15 a_1021_47# A2 VGND VNB sky130_fd_pr__nfet_01v8 w=650000u l=150000u
X16 VGND a_42_47# a_205_21# VNB sky130_fd_pr__nfet_01v8 w=650000u l=150000u
X17 VGND a_205_21# X VNB sky130_fd_pr__nfet_01v8 w=650000u l=150000u
X18 X a_205_21# VGND VNB sky130_fd_pr__nfet_01v8 w=650000u l=150000u
X19 a_42_47# B1_N VGND VNB sky130_fd_pr__nfet_01v8 w=650000u l=150000u
X20 a_603_297# A1 VPWR VPB sky130_fd_pr__pfet_01v8_hvt w=1e+06u l=150000u
X21 VGND a_205_21# X VNB sky130_fd_pr__nfet_01v8 w=650000u l=150000u
.ends


******* EOF

* Copyright 2020 The SkyWater PDK Authors
*
* Licensed under the Apache License, Version 2.0 (the "License");
* you may not use this file except in compliance with the License.
* You may obtain a copy of the License at
*
*     https://www.apache.org/licenses/LICENSE-2.0
*
* Unless required by applicable law or agreed to in writing, software
* distributed under the License is distributed on an "AS IS" BASIS,
* WITHOUT WARRANTIES OR CONDITIONS OF ANY KIND, either express or implied.
* See the License for the specific language governing permissions and
* limitations under the License.
*
* SPDX-License-Identifier: Apache-2.0


.subckt sky130_fd_sc_hd__a21boi_0 A1 A2 B1_N VGND VNB VPB VPWR Y
X0 a_27_47# B1_N VGND VNB sky130_fd_pr__nfet_01v8 w=420000u l=150000u
X1 a_400_47# A2 VGND VNB sky130_fd_pr__nfet_01v8 w=420000u l=150000u
X2 a_300_369# A1 VPWR VPB sky130_fd_pr__pfet_01v8_hvt w=640000u l=150000u
X3 Y a_27_47# a_300_369# VPB sky130_fd_pr__pfet_01v8_hvt w=640000u l=150000u
X4 VGND a_27_47# Y VNB sky130_fd_pr__nfet_01v8 w=420000u l=150000u
X5 Y A1 a_400_47# VNB sky130_fd_pr__nfet_01v8 w=420000u l=150000u
X6 VPWR A2 a_300_369# VPB sky130_fd_pr__pfet_01v8_hvt w=640000u l=150000u
X7 a_27_47# B1_N VPWR VPB sky130_fd_pr__pfet_01v8_hvt w=420000u l=150000u
.ends


******* EOF

* Copyright 2020 The SkyWater PDK Authors
*
* Licensed under the Apache License, Version 2.0 (the "License");
* you may not use this file except in compliance with the License.
* You may obtain a copy of the License at
*
*     https://www.apache.org/licenses/LICENSE-2.0
*
* Unless required by applicable law or agreed to in writing, software
* distributed under the License is distributed on an "AS IS" BASIS,
* WITHOUT WARRANTIES OR CONDITIONS OF ANY KIND, either express or implied.
* See the License for the specific language governing permissions and
* limitations under the License.
*
* SPDX-License-Identifier: Apache-2.0


.subckt sky130_fd_sc_hd__a21boi_1 A1 A2 B1_N VGND VNB VPB VPWR Y
X0 a_384_47# A2 VGND VNB sky130_fd_pr__nfet_01v8 w=650000u l=150000u
X1 VGND a_27_413# Y VNB sky130_fd_pr__nfet_01v8 w=650000u l=150000u
X2 a_300_297# A1 VPWR VPB sky130_fd_pr__pfet_01v8_hvt w=1e+06u l=150000u
X3 Y a_27_413# a_300_297# VPB sky130_fd_pr__pfet_01v8_hvt w=1e+06u l=150000u
X4 a_27_413# B1_N VGND VNB sky130_fd_pr__nfet_01v8 w=420000u l=150000u
X5 Y A1 a_384_47# VNB sky130_fd_pr__nfet_01v8 w=650000u l=150000u
X6 a_27_413# B1_N VPWR VPB sky130_fd_pr__pfet_01v8_hvt w=420000u l=150000u
X7 VPWR A2 a_300_297# VPB sky130_fd_pr__pfet_01v8_hvt w=1e+06u l=150000u
.ends


******* EOF

* Copyright 2020 The SkyWater PDK Authors
*
* Licensed under the Apache License, Version 2.0 (the "License");
* you may not use this file except in compliance with the License.
* You may obtain a copy of the License at
*
*     https://www.apache.org/licenses/LICENSE-2.0
*
* Unless required by applicable law or agreed to in writing, software
* distributed under the License is distributed on an "AS IS" BASIS,
* WITHOUT WARRANTIES OR CONDITIONS OF ANY KIND, either express or implied.
* See the License for the specific language governing permissions and
* limitations under the License.
*
* SPDX-License-Identifier: Apache-2.0


.subckt sky130_fd_sc_hd__a21boi_2 A1 A2 B1_N VGND VNB VPB VPWR Y
X0 Y A1 a_637_47# VNB sky130_fd_pr__nfet_01v8 w=650000u l=150000u
X1 a_61_47# B1_N VGND VNB sky130_fd_pr__nfet_01v8 w=420000u l=150000u
X2 Y a_61_47# VGND VNB sky130_fd_pr__nfet_01v8 w=650000u l=150000u
X3 VPWR A2 a_217_297# VPB sky130_fd_pr__pfet_01v8_hvt w=1e+06u l=150000u
X4 VGND A2 a_479_47# VNB sky130_fd_pr__nfet_01v8 w=650000u l=150000u
X5 a_217_297# a_61_47# Y VPB sky130_fd_pr__pfet_01v8_hvt w=1e+06u l=150000u
X6 a_217_297# A2 VPWR VPB sky130_fd_pr__pfet_01v8_hvt w=1e+06u l=150000u
X7 a_637_47# A2 VGND VNB sky130_fd_pr__nfet_01v8 w=650000u l=150000u
X8 Y a_61_47# a_217_297# VPB sky130_fd_pr__pfet_01v8_hvt w=1e+06u l=150000u
X9 VPWR A1 a_217_297# VPB sky130_fd_pr__pfet_01v8_hvt w=1e+06u l=150000u
X10 a_217_297# A1 VPWR VPB sky130_fd_pr__pfet_01v8_hvt w=1e+06u l=150000u
X11 VGND a_61_47# Y VNB sky130_fd_pr__nfet_01v8 w=650000u l=150000u
X12 a_479_47# A1 Y VNB sky130_fd_pr__nfet_01v8 w=650000u l=150000u
X13 VPWR B1_N a_61_47# VPB sky130_fd_pr__pfet_01v8_hvt w=420000u l=150000u
.ends


******* EOF

* Copyright 2020 The SkyWater PDK Authors
*
* Licensed under the Apache License, Version 2.0 (the "License");
* you may not use this file except in compliance with the License.
* You may obtain a copy of the License at
*
*     https://www.apache.org/licenses/LICENSE-2.0
*
* Unless required by applicable law or agreed to in writing, software
* distributed under the License is distributed on an "AS IS" BASIS,
* WITHOUT WARRANTIES OR CONDITIONS OF ANY KIND, either express or implied.
* See the License for the specific language governing permissions and
* limitations under the License.
*
* SPDX-License-Identifier: Apache-2.0


.subckt sky130_fd_sc_hd__a21boi_4 A1 A2 B1_N VGND VNB VPB VPWR Y
X0 a_223_297# a_27_47# Y VPB sky130_fd_pr__pfet_01v8_hvt w=1e+06u l=150000u
X1 a_223_297# A2 VPWR VPB sky130_fd_pr__pfet_01v8_hvt w=1e+06u l=150000u
X2 a_658_47# A2 VGND VNB sky130_fd_pr__nfet_01v8 w=650000u l=150000u
X3 VPWR A2 a_223_297# VPB sky130_fd_pr__pfet_01v8_hvt w=1e+06u l=150000u
X4 VGND A2 a_658_47# VNB sky130_fd_pr__nfet_01v8 w=650000u l=150000u
X5 a_658_47# A2 VGND VNB sky130_fd_pr__nfet_01v8 w=650000u l=150000u
X6 VPWR A1 a_223_297# VPB sky130_fd_pr__pfet_01v8_hvt w=1e+06u l=150000u
X7 a_658_47# A1 Y VNB sky130_fd_pr__nfet_01v8 w=650000u l=150000u
X8 VGND a_27_47# Y VNB sky130_fd_pr__nfet_01v8 w=650000u l=150000u
X9 Y A1 a_658_47# VNB sky130_fd_pr__nfet_01v8 w=650000u l=150000u
X10 a_223_297# a_27_47# Y VPB sky130_fd_pr__pfet_01v8_hvt w=1e+06u l=150000u
X11 Y a_27_47# VGND VNB sky130_fd_pr__nfet_01v8 w=650000u l=150000u
X12 Y a_27_47# a_223_297# VPB sky130_fd_pr__pfet_01v8_hvt w=1e+06u l=150000u
X13 VGND A2 a_658_47# VNB sky130_fd_pr__nfet_01v8 w=650000u l=150000u
X14 a_223_297# A2 VPWR VPB sky130_fd_pr__pfet_01v8_hvt w=1e+06u l=150000u
X15 a_658_47# A1 Y VNB sky130_fd_pr__nfet_01v8 w=650000u l=150000u
X16 a_223_297# A1 VPWR VPB sky130_fd_pr__pfet_01v8_hvt w=1e+06u l=150000u
X17 VPWR A1 a_223_297# VPB sky130_fd_pr__pfet_01v8_hvt w=1e+06u l=150000u
X18 VGND a_27_47# Y VNB sky130_fd_pr__nfet_01v8 w=650000u l=150000u
X19 Y A1 a_658_47# VNB sky130_fd_pr__nfet_01v8 w=650000u l=150000u
X20 a_27_47# B1_N VPWR VPB sky130_fd_pr__pfet_01v8_hvt w=1e+06u l=150000u
X21 Y a_27_47# VGND VNB sky130_fd_pr__nfet_01v8 w=650000u l=150000u
X22 Y a_27_47# a_223_297# VPB sky130_fd_pr__pfet_01v8_hvt w=1e+06u l=150000u
X23 a_27_47# B1_N VGND VNB sky130_fd_pr__nfet_01v8 w=650000u l=150000u
X24 VPWR A2 a_223_297# VPB sky130_fd_pr__pfet_01v8_hvt w=1e+06u l=150000u
X25 a_223_297# A1 VPWR VPB sky130_fd_pr__pfet_01v8_hvt w=1e+06u l=150000u
.ends


******* EOF

* Copyright 2020 The SkyWater PDK Authors
*
* Licensed under the Apache License, Version 2.0 (the "License");
* you may not use this file except in compliance with the License.
* You may obtain a copy of the License at
*
*     https://www.apache.org/licenses/LICENSE-2.0
*
* Unless required by applicable law or agreed to in writing, software
* distributed under the License is distributed on an "AS IS" BASIS,
* WITHOUT WARRANTIES OR CONDITIONS OF ANY KIND, either express or implied.
* See the License for the specific language governing permissions and
* limitations under the License.
*
* SPDX-License-Identifier: Apache-2.0


.subckt sky130_fd_sc_hd__a21o_1 A1 A2 B1 VGND VNB VPB VPWR X
X0 a_384_47# A2 VGND VNB sky130_fd_pr__nfet_01v8 w=650000u l=150000u
X1 X a_81_21# VPWR VPB sky130_fd_pr__pfet_01v8_hvt w=1e+06u l=150000u
X2 a_81_21# B1 a_299_297# VPB sky130_fd_pr__pfet_01v8_hvt w=1e+06u l=150000u
X3 VGND B1 a_81_21# VNB sky130_fd_pr__nfet_01v8 w=650000u l=150000u
X4 a_299_297# A1 VPWR VPB sky130_fd_pr__pfet_01v8_hvt w=1e+06u l=150000u
X5 VPWR A2 a_299_297# VPB sky130_fd_pr__pfet_01v8_hvt w=1e+06u l=150000u
X6 X a_81_21# VGND VNB sky130_fd_pr__nfet_01v8 w=650000u l=150000u
X7 a_81_21# A1 a_384_47# VNB sky130_fd_pr__nfet_01v8 w=650000u l=150000u
.ends


******* EOF

* Copyright 2020 The SkyWater PDK Authors
*
* Licensed under the Apache License, Version 2.0 (the "License");
* you may not use this file except in compliance with the License.
* You may obtain a copy of the License at
*
*     https://www.apache.org/licenses/LICENSE-2.0
*
* Unless required by applicable law or agreed to in writing, software
* distributed under the License is distributed on an "AS IS" BASIS,
* WITHOUT WARRANTIES OR CONDITIONS OF ANY KIND, either express or implied.
* See the License for the specific language governing permissions and
* limitations under the License.
*
* SPDX-License-Identifier: Apache-2.0


.subckt sky130_fd_sc_hd__a21o_2 A1 A2 B1 VGND VNB VPB VPWR X
X0 a_80_199# A1 a_458_47# VNB sky130_fd_pr__nfet_01v8 w=650000u l=150000u
X1 X a_80_199# VPWR VPB sky130_fd_pr__pfet_01v8_hvt w=1e+06u l=150000u
X2 VPWR a_80_199# X VPB sky130_fd_pr__pfet_01v8_hvt w=1e+06u l=150000u
X3 VGND a_80_199# X VNB sky130_fd_pr__nfet_01v8 w=650000u l=150000u
X4 VGND B1 a_80_199# VNB sky130_fd_pr__nfet_01v8 w=650000u l=150000u
X5 X a_80_199# VGND VNB sky130_fd_pr__nfet_01v8 w=650000u l=150000u
X6 VPWR A2 a_386_297# VPB sky130_fd_pr__pfet_01v8_hvt w=1e+06u l=150000u
X7 a_458_47# A2 VGND VNB sky130_fd_pr__nfet_01v8 w=650000u l=150000u
X8 a_80_199# B1 a_386_297# VPB sky130_fd_pr__pfet_01v8_hvt w=1e+06u l=150000u
X9 a_386_297# A1 VPWR VPB sky130_fd_pr__pfet_01v8_hvt w=1e+06u l=150000u
.ends


******* EOF

* Copyright 2020 The SkyWater PDK Authors
*
* Licensed under the Apache License, Version 2.0 (the "License");
* you may not use this file except in compliance with the License.
* You may obtain a copy of the License at
*
*     https://www.apache.org/licenses/LICENSE-2.0
*
* Unless required by applicable law or agreed to in writing, software
* distributed under the License is distributed on an "AS IS" BASIS,
* WITHOUT WARRANTIES OR CONDITIONS OF ANY KIND, either express or implied.
* See the License for the specific language governing permissions and
* limitations under the License.
*
* SPDX-License-Identifier: Apache-2.0


.subckt sky130_fd_sc_hd__a21o_4 A1 A2 B1 VGND VNB VPB VPWR X
X0 VPWR A2 a_483_297# VPB sky130_fd_pr__pfet_01v8_hvt w=1e+06u l=150000u
X1 VGND a_84_21# X VNB sky130_fd_pr__nfet_01v8 w=650000u l=150000u
X2 a_483_297# A1 VPWR VPB sky130_fd_pr__pfet_01v8_hvt w=1e+06u l=150000u
X3 a_741_47# A1 a_84_21# VNB sky130_fd_pr__nfet_01v8 w=650000u l=150000u
X4 a_84_21# B1 VGND VNB sky130_fd_pr__nfet_01v8 w=650000u l=150000u
X5 VGND A2 a_741_47# VNB sky130_fd_pr__nfet_01v8 w=650000u l=150000u
X6 VPWR a_84_21# X VPB sky130_fd_pr__pfet_01v8_hvt w=1e+06u l=150000u
X7 VGND B1 a_84_21# VNB sky130_fd_pr__nfet_01v8 w=650000u l=150000u
X8 X a_84_21# VGND VNB sky130_fd_pr__nfet_01v8 w=650000u l=150000u
X9 a_84_21# B1 a_483_297# VPB sky130_fd_pr__pfet_01v8_hvt w=1e+06u l=150000u
X10 X a_84_21# VPWR VPB sky130_fd_pr__pfet_01v8_hvt w=1e+06u l=150000u
X11 VPWR a_84_21# X VPB sky130_fd_pr__pfet_01v8_hvt w=1e+06u l=150000u
X12 a_483_297# B1 a_84_21# VPB sky130_fd_pr__pfet_01v8_hvt w=1e+06u l=150000u