* Copyright 2020 The SkyWater PDK Authors
*
* Licensed under the Apache License, Version 2.0 (the "License");
* you may not use this file except in compliance with the License.
* You may obtain a copy of the License at
*
*     https://www.apache.org/licenses/LICENSE-2.0
*
* Unless required by applicable law or agreed to in writing, software
* distributed under the License is distributed on an "AS IS" BASIS,
* WITHOUT WARRANTIES OR CONDITIONS OF ANY KIND, either express or implied.
* See the License for the specific language governing permissions and
* limitations under the License.
*
* SPDX-License-Identifier: Apache-2.0


.subckt sky130_fd_sc_hvl__a21o_1 A1 A2 B1 VGND VNB VPB VPWR X
X0 VPWR A2 a_469_443# VPB sky130_fd_pr__pfet_g5v0d10v5 w=1.5e+06u l=500000u
X1 X a_83_283# VPWR VPB sky130_fd_pr__pfet_g5v0d10v5 w=1.5e+06u l=500000u
X2 X a_83_283# VGND VNB sky130_fd_pr__nfet_g5v0d10v5 w=750000u l=500000u
X3 a_631_107# A2 VGND VNB sky130_fd_pr__nfet_g5v0d10v5 w=750000u l=500000u
X4 VGND B1 a_83_283# VNB sky130_fd_pr__nfet_g5v0d10v5 w=750000u l=500000u
X5 a_83_283# B1 a_469_443# VPB sky130_fd_pr__pfet_g5v0d10v5 w=1.5e+06u l=500000u
X6 a_83_283# A1 a_631_107# VNB sky130_fd_pr__nfet_g5v0d10v5 w=750000u l=500000u
X7 a_469_443# A1 VPWR VPB sky130_fd_pr__pfet_g5v0d10v5 w=1.5e+06u l=500000u
.ends


******* EOF

* Copyright 2020 The SkyWater PDK Authors
*
* Licensed under the Apache License, Version 2.0 (the "License");
* you may not use this file except in compliance with the License.
* You may obtain a copy of the License at
*
*     https://www.apache.org/licenses/LICENSE-2.0
*
* Unless required by applicable law or agreed to in writing, software
* distributed under the License is distributed on an "AS IS" BASIS,
* WITHOUT WARRANTIES OR CONDITIONS OF ANY KIND, either express or implied.
* See the License for the specific language governing permissions and
* limitations under the License.
*
* SPDX-License-Identifier: Apache-2.0


.subckt sky130_fd_sc_hvl__a21oi_1 A1 A2 B1 VGND VNB VPB VPWR Y
X0 Y B1 VGND VNB sky130_fd_pr__nfet_g5v0d10v5 w=750000u l=500000u
X1 VGND A2 a_271_107# VNB sky130_fd_pr__nfet_g5v0d10v5 w=750000u l=500000u
X2 a_56_443# A2 VPWR VPB sky130_fd_pr__pfet_g5v0d10v5 w=1.5e+06u l=500000u
X3 a_271_107# A1 Y VNB sky130_fd_pr__nfet_g5v0d10v5 w=750000u l=500000u
X4 a_56_443# B1 Y VPB sky130_fd_pr__pfet_g5v0d10v5 w=1.5e+06u l=500000u
X5 VPWR A1 a_56_443# VPB sky130_fd_pr__pfet_g5v0d10v5 w=1.5e+06u l=500000u
.ends


******* EOF

* Copyright 2020 The SkyWater PDK Authors
*
* Licensed under the Apache License, Version 2.0 (the "License");
* you may not use this file except in compliance with the License.
* You may obtain a copy of the License at
*
*     https://www.apache.org/licenses/LICENSE-2.0
*
* Unless required by applicable law or agreed to in writing, software
* distributed under the License is distributed on an "AS IS" BASIS,
* WITHOUT WARRANTIES OR CONDITIONS OF ANY KIND, either express or implied.
* See the License for the specific language governing permissions and
* limitations under the License.
*
* SPDX-License-Identifier: Apache-2.0


.subckt sky130_fd_sc_hvl__a22o_1 A1 A2 B1 B2 VGND VNB VPB VPWR X
X0 X a_83_81# VGND VNB sky130_fd_pr__nfet_g5v0d10v5 w=750000u l=500000u
X1 a_822_107# A2 VGND VNB sky130_fd_pr__nfet_g5v0d10v5 w=750000u l=500000u
X2 a_316_443# B2 a_83_81# VPB sky130_fd_pr__pfet_g5v0d10v5 w=1.5e+06u l=500000u
X3 X a_83_81# VPWR VPB sky130_fd_pr__pfet_g5v0d10v5 w=1.5e+06u l=500000u
X4 a_316_443# A1 VPWR VPB sky130_fd_pr__pfet_g5v0d10v5 w=1.5e+06u l=500000u
X5 VGND B2 a_519_107# VNB sky130_fd_pr__nfet_g5v0d10v5 w=750000u l=500000u
X6 a_519_107# B1 a_83_81# VNB sky130_fd_pr__nfet_g5v0d10v5 w=750000u l=500000u
X7 a_83_81# A1 a_822_107# VNB sky130_fd_pr__nfet_g5v0d10v5 w=750000u l=500000u
X8 a_83_81# B1 a_316_443# VPB sky130_fd_pr__pfet_g5v0d10v5 w=1.5e+06u l=500000u
X9 VPWR A2 a_316_443# VPB sky130_fd_pr__pfet_g5v0d10v5 w=1.5e+06u l=500000u
.ends


******* EOF

* Copyright 2020 The SkyWater PDK Authors
*
* Licensed under the Apache License, Version 2.0 (the "License");
* you may not use this file except in compliance with the License.
* You may obtain a copy of the License at
*
*     https://www.apache.org/licenses/LICENSE-2.0
*
* Unless required by applicable law or agreed to in writing, software
* distributed under the License is distributed on an "AS IS" BASIS,
* WITHOUT WARRANTIES OR CONDITIONS OF ANY KIND, either express or implied.
* See the License for the specific language governing permissions and
* limitations under the License.
*
* SPDX-License-Identifier: Apache-2.0


.subckt sky130_fd_sc_hvl__a22oi_1 A1 A2 B1 B2 VGND VNB VPB VPWR Y
X0 VGND B2 a_204_107# VNB sky130_fd_pr__nfet_g5v0d10v5 w=750000u l=500000u
X1 a_33_443# B2 Y VPB sky130_fd_pr__pfet_g5v0d10v5 w=1.5e+06u l=500000u
X2 a_502_107# A2 VGND VNB sky130_fd_pr__nfet_g5v0d10v5 w=750000u l=500000u
X3 a_204_107# B1 Y VNB sky130_fd_pr__nfet_g5v0d10v5 w=750000u l=500000u
X4 Y B1 a_33_443# VPB sky130_fd_pr__pfet_g5v0d10v5 w=1.5e+06u l=500000u
X5 Y A1 a_502_107# VNB sky130_fd_pr__nfet_g5v0d10v5 w=750000u l=500000u
X6 VPWR A2 a_33_443# VPB sky130_fd_pr__pfet_g5v0d10v5 w=1.5e+06u l=500000u
X7 a_33_443# A1 VPWR VPB sky130_fd_pr__pfet_g5v0d10v5 w=1.5e+06u l=500000u
.ends


******* EOF

* Copyright 2020 The SkyWater PDK Authors
*
* Licensed under the Apache License, Version 2.0 (the "License");
* you may not use this file except in compliance with the License.
* You may obtain a copy of the License at
*
*     https://www.apache.org/licenses/LICENSE-2.0
*
* Unless required by applicable law or agreed to in writing, software
* distributed under the License is distributed on an "AS IS" BASIS,
* WITHOUT WARRANTIES OR CONDITIONS OF ANY KIND, either express or implied.
* See the License for the specific language governing permissions and
* limitations under the License.
*
* SPDX-License-Identifier: Apache-2.0


.subckt sky130_fd_sc_hvl__and2_1 A B VGND VNB VPB VPWR X
X0 VGND a_30_107# X VNB sky130_fd_pr__nfet_g5v0d10v5 w=750000u l=500000u
X1 VPWR a_30_107# X VPB sky130_fd_pr__pfet_g5v0d10v5 w=1.5e+06u l=500000u
X2 a_30_107# A a_183_107# VNB sky130_fd_pr__nfet_g5v0d10v5 w=420000u l=500000u
X3 a_183_107# B VGND VNB sky130_fd_pr__nfet_g5v0d10v5 w=420000u l=500000u
X4 VPWR A a_30_107# VPB sky130_fd_pr__pfet_g5v0d10v5 w=420000u l=500000u
X5 a_30_107# B VPWR VPB sky130_fd_pr__pfet_g5v0d10v5 w=420000u l=500000u
.ends


******* EOF

* Copyright 2020 The SkyWater PDK Authors
*
* Licensed under the Apache License, Version 2.0 (the "License");
* you may not use this file except in compliance with the License.
* You may obtain a copy of the License at
*
*     https://www.apache.org/licenses/LICENSE-2.0
*
* Unless required by applicable law or agreed to in writing, software
* distributed under the License is distributed on an "AS IS" BASIS,
* WITHOUT WARRANTIES OR CONDITIONS OF ANY KIND, either express or implied.
* See the License for the specific language governing permissions and
* limitations under the License.
*
* SPDX-License-Identifier: Apache-2.0


.subckt sky130_fd_sc_hvl__and3_1 A B C VGND VNB VPB VPWR X
X0 VGND a_30_517# X VNB sky130_fd_pr__nfet_g5v0d10v5 w=750000u l=500000u
X1 a_201_173# B a_343_173# VNB sky130_fd_pr__nfet_g5v0d10v5 w=420000u l=500000u
X2 a_30_517# C VPWR VPB sky130_fd_pr__pfet_g5v0d10v5 w=420000u l=500000u
X3 VPWR a_30_517# X VPB sky130_fd_pr__pfet_g5v0d10v5 w=1.5e+06u l=500000u
X4 a_30_517# A VPWR VPB sky130_fd_pr__pfet_g5v0d10v5 w=420000u l=500000u
X5 VPWR B a_30_517# VPB sky130_fd_pr__pfet_g5v0d10v5 w=420000u l=500000u
X6 a_30_517# A a_201_173# VNB sky130_fd_pr__nfet_g5v0d10v5 w=420000u l=500000u
X7 a_343_173# C VGND VNB sky130_fd_pr__nfet_g5v0d10v5 w=420000u l=500000u
.ends


******* EOF

* Copyright 2020 The SkyWater PDK Authors
*
* Licensed under the Apache License, Version 2.0 (the "License");
* you may not use this file except in compliance with the License.
* You may obtain a copy of the License at
*
*     https://www.apache.org/licenses/LICENSE-2.0
*
* Unless required by applicable law or agreed to in writing, software
* distributed under the License is distributed on an "AS IS" BASIS,
* WITHOUT WARRANTIES OR CONDITIONS OF ANY KIND, either express or implied.
* See the License for the specific language governing permissions and
* limitations under the License.
*
* SPDX-License-Identifier: Apache-2.0


.subckt sky130_fd_sc_hvl__buf_1 A VGND VNB VPB VPWR X
X0 VPWR A a_84_81# VPB sky130_fd_pr__pfet_g5v0d10v5 w=750000u l=500000u
X1 X a_84_81# VGND VNB sky130_fd_pr__nfet_g5v0d10v5 w=750000u l=500000u
X2 VGND A a_84_81# VNB sky130_fd_pr__nfet_g5v0d10v5 w=420000u l=500000u
X3 X a_84_81# VPWR VPB sky130_fd_pr__pfet_g5v0d10v5 w=1.5e+06u l=500000u
.ends


******* EOF

* Copyright 2020 The SkyWater PDK Authors
*
* Licensed under the Apache License, Version 2.0 (the "License");
* you may not use this file except in compliance with the License.
* You may obtain a copy of the License at
*
*     https://www.apache.org/licenses/LICENSE-2.0
*
* Unless required by applicable law or agreed to in writing, software
* distributed under the License is distributed on an "AS IS" BASIS,
* WITHOUT WARRANTIES OR CONDITIONS OF ANY KIND, either express or implied.
* See the License for the specific language governing permissions and
* limitations under the License.
*
* SPDX-License-Identifier: Apache-2.0


.subckt sky130_fd_sc_hvl__buf_2 A VGND VNB VPB VPWR X
X0 VPWR A a_129_279# VPB sky130_fd_pr__pfet_g5v0d10v5 w=750000u l=500000u
X1 VPWR a_129_279# X VPB sky130_fd_pr__pfet_g5v0d10v5 w=1.5e+06u l=500000u
X2 X a_129_279# VGND VNB sky130_fd_pr__nfet_g5v0d10v5 w=750000u l=500000u
X3 VGND A a_129_279# VNB sky130_fd_pr__nfet_g5v0d10v5 w=420000u l=500000u
X4 X a_129_279# VPWR VPB sky130_fd_pr__pfet_g5v0d10v5 w=1.5e+06u l=500000u
X5 VGND a_129_279# X VNB sky130_fd_pr__nfet_g5v0d10v5 w=750000u l=500000u
.ends


******* EOF

* Copyright 2020 The SkyWater PDK Authors
*
* Licensed under the Apache License, Version 2.0 (the "License");
* you may not use this file except in compliance with the License.
* You may obtain a copy of the License at
*
*     https://www.apache.org/licenses/LICENSE-2.0
*
* Unless required by applicable law or agreed to in writing, software
* distributed under the License is distributed on an "AS IS" BASIS,
* WITHOUT WARRANTIES OR CONDITIONS OF ANY KIND, either express or implied.
* See the License for the specific language governing permissions and
* limitations under the License.
*
* SPDX-License-Identifier: Apache-2.0


.subckt sky130_fd_sc_hvl__buf_4 A VGND VNB VPB VPWR X
X0 X a_149_81# VGND VNB sky130_fd_pr__nfet_g5v0d10v5 w=750000u l=500000u
X1 X a_149_81# VGND VNB sky130_fd_pr__nfet_g5v0d10v5 w=750000u l=500000u
X2 X a_149_81# VPWR VPB sky130_fd_pr__pfet_g5v0d10v5 w=1.5e+06u l=500000u
X3 X a_149_81# VPWR VPB sky130_fd_pr__pfet_g5v0d10v5 w=1.5e+06u l=500000u
X4 VGND a_149_81# X VNB sky130_fd_pr__nfet_g5v0d10v5 w=750000u l=500000u
X5 VGND A a_149_81# VNB sky130_fd_pr__nfet_g5v0d10v5 w=750000u l=500000u
X6 VPWR a_149_81# X VPB sky130_fd_pr__pfet_g5v0d10v5 w=1.5e+06u l=500000u
X7 VPWR A a_149_81# VPB sky130_fd_pr__pfet_g5v0d10v5 w=1.5e+06u l=500000u
X8 VGND a_149_81# X VNB sky130_fd_pr__nfet_g5v0d10v5 w=750000u l=500000u
X9 VPWR a_149_81# X VPB sky130_fd_pr__pfet_g5v0d10v5 w=1.5e+06u l=500000u
.ends


******* EOF

* Copyright 2020 The SkyWater PDK Authors
*
* Licensed under the Apache License, Version 2.0 (the "License");
* you may not use this file except in compliance with the License.
* You may obtain a copy of the License at
*
*     https://www.apache.org/licenses/LICENSE-2.0
*
* Unless required by applicable law or agreed to in writing, software
* distributed under the License is distributed on an "AS IS" BASIS,
* WITHOUT WARRANTIES OR CONDITIONS OF ANY KIND, either express or implied.
* See the License for the specific language governing permissions and
* limitations under the License.
*
* SPDX-License-Identifier: Apache-2.0


.subckt sky130_fd_sc_hvl__buf_8 A VGND VNB VPB VPWR X
X0 a_45_443# A VPWR VPB sky130_fd_pr__pfet_g5v0d10v5 w=1.5e+06u l=500000u
X1 X a_45_443# VGND VNB sky130_fd_pr__nfet_g5v0d10v5 w=750000u l=500000u
X2 X a_45_443# VPWR VPB sky130_fd_pr__pfet_g5v0d10v5 w=1.5e+06u l=500000u
X3 X a_45_443# VGND VNB sky130_fd_pr__nfet_g5v0d10v5 w=750000u l=500000u
X4 X a_45_443# VGND VNB sky130_fd_pr__nfet_g5v0d10v5 w=750000u l=500000u
X5 VGND A a_45_443# VNB sky130_fd_pr__nfet_g5v0d10v5 w=750000u l=500000u
X6 VGND a_45_443# X VNB sky130_fd_pr__nfet_g5v0d10v5 w=750000u l=500000u
X7 VGND a_45_443# X VNB sky130_fd_pr__nfet_g5v0d10v5 w=750000u l=500000u
X8 a_45_443# A VGND VNB sky130_fd_pr__nfet_g5v0d10v5 w=750000u l=500000u
X9 X a_45_443# VPWR VPB sky130_fd_pr__pfet_g5v0d10v5 w=1.5e+06u l=500000u
X10 VGND a_45_443# X VNB sky130_fd_pr__nfet_g5v0d10v5 w=750000u l=500000u
X11 VGND a_45_443# X VNB sky130_fd_pr__nfet_g5v0d10v5 w=750000u l=500000u
X12 X a_45_443# VPWR VPB sky130_fd_pr__pfet_g5v0d10v5 w=1.5e+06u l=500000u
X13 X a_45_443# VPWR VPB sky130_fd_pr__pfet_g5v0d10v5 w=1.5e+06u l=500000u
X14 a_45_443# A VPWR VPB sky130_fd_pr__pfet_g5v0d10v5 w=1.5e+06u l=500000u
X15 VPWR A a_45_443# VPB sky130_fd_pr__pfet_g5v0d10v5 w=1.5e+06u l=500000u
X16 a_45_443# A VGND VNB sky130_fd_pr__nfet_g5v0d10v5 w=750000u l=500000u
X17 VPWR a_45_443# X VPB sky130_fd_pr__pfet_g5v0d10v5 w=1.5e+06u l=500000u
X18 VPWR a_45_443# X VPB sky130_fd_pr__pfet_g5v0d10v5 w=1.5e+06u l=500000u
X19 X a_45_443# VGND VNB sky130_fd_pr__nfet_g5v0d10v5 w=750000u l=500000u
X20 VPWR a_45_443# X VPB sky130_fd_pr__pfet_g5v0d10v5 w=1.5e+06u l=500000u
X21 VPWR a_45_443# X VPB sky130_fd_pr__pfet_g5v0d10v5 w=1.5e+06u l=500000u
.ends


******* EOF

* Copyright 2020 The SkyWater PDK Authors
*
* Licensed under the Apache License, Version 2.0 (the "License");
* you may not use this file except in compliance with the License.
* You may obtain a copy of the License at
*
*     https://www.apache.org/licenses/LICENSE-2.0
*
* Unless required by applicable law or agreed to in writing, software
* distributed under the License is distributed on an "AS IS" BASIS,
* WITHOUT WARRANTIES OR CONDITIONS OF ANY KIND, either express or implied.
* See the License for the specific language governing permissions and
* limitations under the License.
*
* SPDX-License-Identifier: Apache-2.0


.subckt sky130_fd_sc_hvl__buf_16 A VGND VNB VPB VPWR X
X0 X a_183_141# VPWR VPB sky130_fd_pr__pfet_g5v0d10v5 w=1.5e+06u l=500000u
X1 X a_183_141# VPWR VPB sky130_fd_pr__pfet_g5v0d10v5 w=1.5e+06u l=500000u
X2 a_183_141# A VGND VNB sky130_fd_pr__nfet_g5v0d10v5 w=750000u l=500000u
X3 VGND a_183_141# X VNB sky130_fd_pr__nfet_g5v0d10v5 w=750000u l=500000u
X4 X a_183_141# VPWR VPB sky130_fd_pr__pfet_g5v0d10v5 w=1.5e+06u l=500000u
X5 VPWR A a_183_141# VPB sky130_fd_pr__pfet_g5v0d10v5 w=1.5e+06u l=500000u
X6 X a_183_141# VGND VNB sky130_fd_pr__nfet_g5v0d10v5 w=750000u l=500000u
X7 VPWR a_183_141# X VPB sky130_fd_pr__pfet_g5v0d10v5 w=1.5e+06u l=500000u
X8 a_183_141# A VGND VNB sky130_fd_pr__nfet_g5v0d10v5 w=750000u l=500000u
X9 VPWR A a_183_141# VPB sky130_fd_pr__pfet_g5v0d10v5 w=1.5e+06u l=500000u
X10 VPWR a_183_141# X VPB sky130_fd_pr__pfet_g5v0d10v5 w=1.5e+06u l=500000u
X11 VGND a_183_141# X VNB sky130_fd_pr__nfet_g5v0d10v5 w=750000u l=500000u
X12 X a_183_141# VGND VNB sky130_fd_pr__nfet_g5v0d10v5 w=750000u l=500000u
X13 VPWR A a_183_141# VPB sky130_fd_pr__pfet_g5v0d10v5 w=1.5e+06u l=500000u
X14 VPWR a_183_141# X VPB sky130_fd_pr__pfet_g5v0d10v5 w=1.5e+06u l=500000u
X15 VGND a_183_141# X VNB sky130_fd_pr__nfet_g5v0d10v5 w=750000u l=500000u
X16 VPWR a_183_141# X VPB sky130_fd_pr__pfet_g5v0d10v5 w=1.5e+06u l=500000u
X17 VGND a_183_141# X VNB sky130_fd_pr__nfet_g5v0d10v5 w=750000u l=500000u
X18 a_183_141# A VPWR VPB sky130_fd_pr__pfet_g5v0d10v5 w=1.5e+06u l=500000u
X19 VGND a_183_141# X VNB sky130_fd_pr__nfet_g5v0d10v5 w=750000u l=500000u
X20 a_183_141# A VPWR VPB sky130_fd_pr__pfet_g5v0d10v5 w=1.5e+06u l=500000u
X21 X a_183_141# VPWR VPB sky130_fd_pr__pfet_g5v0d10v5 w=1.5e+06u l=500000u
X22 a_183_141# A VGND VNB sky130_fd_pr__nfet_g5v0d10v5 w=750000u l=500000u
X23 X a_183_141# VGND VNB sky130_fd_pr__nfet_g5v0d10v5 w=750000u l=500000u
X24 VPWR a_183_141# X VPB sky130_fd_pr__pfet_g5v0d10v5 w=1.5e+06u l=500000u
X25 X a_183_141# VPWR VPB sky130_fd_pr__pfet_g5v0d10v5 w=1.5e+06u l=500000u
X26 X a_183_141# VGND VNB sky130_fd_pr__nfet_g5v0d10v5 w=750000u l=500000u
X27 X a_183_141# VGND VNB sky130_fd_pr__nfet_g5v0d10v5 w=750000u l=500000u
X28 X a_183_141# VGND VNB sky130_fd_pr__nfet_g5v0d10v5 w=750000u l=500000u
X29 X a_183_141# VGND VNB sky130_fd_pr__nfet_g5v0d10v5 w=750000u l=500000u
X30 VPWR a_183_141# X VPB sky130_fd_pr__pfet_g5v0d10v5 w=1.5e+06u l=500000u
X31 X a_183_141# VGND VNB sky130_fd_pr__nfet_g5v0d10v5 w=750000u l=500000u
X32 VPWR a_183_141# X VPB sky130_fd_pr__pfet_g5v0d10v5 w=1.5e+06u l=500000u
X33 VGND A a_183_141# VNB sky130_fd_pr__nfet_g5v0d10v5 w=750000u l=500000u
X34 VGND a_183_141# X VNB sky130_fd_pr__nfet_g5v0d10v5 w=750000u l=500000u
X35 a_183_141# A VPWR VPB sky130_fd_pr__pfet_g5v0d10v5 w=1.5e+06u l=500000u
X36 VPWR a_183_141# X VPB sky130_fd_pr__pfet_g5v0d10v5 w=1.5e+06u l=500000u
X37 VGND A a_183_141# VNB sky130_fd_pr__nfet_g5v0d10v5 w=750000u l=500000u
X38 VGND a_183_141# X VNB sky130_fd_pr__nfet_g5v0d10v5 w=750000u l=500000u
X39 X a_183_141# VPWR VPB sky130_fd_pr__pfet_g5v0d10v5 w=1.5e+06u l=500000u
X40 VGND A a_183_141# VNB sky130_fd_pr__nfet_g5v0d10v5 w=750000u l=500000u
X41 X a_183_141# VPWR VPB sky130_fd_pr__pfet_g5v0d10v5 w=1.5e+06u l=500000u
X42 VGND a_183_141# X VNB sky130_fd_pr__nfet_g5v0d10v5 w=750000u l=500000u
X43 X a_183_141# VPWR VPB sky130_fd_pr__pfet_g5v0d10v5 w=1.5e+06u l=500000u
.ends


******* EOF

* Copyright 2020 The SkyWater PDK Authors
*
* Licensed under the Apache License, Version 2.0 (the "License");
* you may not use this file except in compliance with the License.
* You may obtain a copy of the License at
*
*     https://www.apache.org/licenses/LICENSE-2.0
*
* Unless required by applicable law or agreed to in writing, software
* distributed under the License is distributed on an "AS IS" BASIS,
* WITHOUT WARRANTIES OR CONDITIONS OF ANY KIND, either express or implied.
* See the License for the specific language governing permissions and
* limitations under the License.
*
* SPDX-License-Identifier: Apache-2.0


.subckt sky130_fd_sc_hvl__buf_32 A VGND VNB VPB VPWR X
X0 a_183_141# A VPWR VPB sky130_fd_pr__pfet_g5v0d10v5 w=1.5e+06u l=500000u
X1 X a_183_141# VPWR VPB sky130_fd_pr__pfet_g5v0d10v5 w=1.5e+06u l=500000u
X2 VPWR a_183_141# X VPB sky130_fd_pr__pfet_g5v0d10v5 w=1.5e+06u l=500000u
X3 VGND a_183_141# X VNB sky130_fd_pr__nfet_g5v0d10v5 w=750000u l=500000u
X4 X a_183_141# VPWR VPB sky130_fd_pr__pfet_g5v0d10v5 w=1.5e+06u l=500000u
X5 a_183_141# A VGND VNB sky130_fd_pr__nfet_g5v0d10v5 w=750000u l=500000u
X6 VPWR a_183_141# X VPB sky130_fd_pr__pfet_g5v0d10v5 w=1.5e+06u l=500000u
X7 X a_183_141# VPWR VPB sky130_fd_pr__pfet_g5v0d10v5 w=1.5e+06u l=500000u
X8 VGND a_183_141# X VNB sky130_fd_pr__nfet_g5v0d10v5 w=750000u l=500000u
X9 VGND a_183_141# X VNB sky130_fd_pr__nfet_g5v0d10v5 w=750000u l=500000u
X10 VPWR A a_183_141# VPB sky130_fd_pr__pfet_g5v0d10v5 w=1.5e+06u l=500000u
X11 X a_183_141# VPWR VPB sky130_fd_pr__pfet_g5v0d10v5 w=1.5e+06u l=500000u
X12 VPWR A a_183_141# VPB sky130_fd_pr__pfet_g5v0d10v5 w=1.5e+06u l=500000u
X13 a_183_141# A VGND VNB sky130_fd_pr__nfet_g5v0d10v5 w=750000u l=500000u
X14 X a_183_141# VGND VNB sky130_fd_pr__nfet_g5v0d10v5 w=750000u l=500000u
X15 VPWR a_183_141# X VPB sky130_fd_pr__pfet_g5v0d10v5 w=1.5e+06u l=500000u
X16 X a_183_141# VPWR VPB sky130_fd_pr__pfet_g5v0d10v5 w=1.5e+06u l=500000u
X17 X a_183_141# VGND VNB sky130_fd_pr__nfet_g5v0d10v5 w=750000u l=500000u
X18 VPWR A a_183_141# VPB sky130_fd_pr__pfet_g5v0d10v5 w=1.5e+06u l=500000u
X19 X a_183_141# VPWR VPB sky130_fd_pr__pfet_g5v0d10v5 w=1.5e+06u l=500000u
X20 VGND A a_183_141# VNB sky130_fd_pr__nfet_g5v0d10v5 w=750000u l=500000u
X21 VPWR a_183_141# X VPB sky130_fd_pr__pfet_g5v0d10v5 w=1.5e+06u l=500000u
X22 X a_183_141# VPWR VPB sky130_fd_pr__pfet_g5v0d10v5 w=1.5e+06u l=500000u
X23 VPWR A a_183_141# VPB sky130_fd_pr__pfet_g5v0d10v5 w=1.5e+06u l=500000u
X24 VPWR a_183_141# X VPB sky130_fd_pr__pfet_g5v0d10v5 w=1.5e+06u l=500000u
X25 X a_183_141# VGND VNB sky130_fd_pr__nfet_g5v0d10v5 w=750000u l=500000u
X26 X a_183_141# VPWR VPB sky130_fd_pr__pfet_g5v0d10v5 w=1.5e+06u l=500000u
X27 X a_183_141# VGND VNB sky130_fd_pr__nfet_g5v0d10v5 w=750000u l=500000u
X28 VPWR a_183_141# X VPB sky130_fd_pr__pfet_g5v0d10v5 w=1.5e+06u l=500000u
X29 X a_183_141# VGND VNB sky130_fd_pr__nfet_g5v0d10v5 w=750000u l=500000u
X30 VPWR a_183_141# X VPB sky130_fd_pr__pfet_g5v0d10v5 w=1.5e+06u l=500000u
X31 X a_183_141# VGND VNB sky130_fd_pr__nfet_g5v0d10v5 w=750000u l=500000u
X32 VPWR a_183_141# X VPB sky130_fd_pr__pfet_g5v0d10v5 w=1.5e+06u l=500000u
X33 a_183_141# A VPWR VPB sky130_fd_pr__pfet_g5v0d10v5 w=1.5e+06u l=500000u
X34 VPWR a_183_141# X VPB sky130_fd_pr__pfet_g5v0d10v5 w=1.5e+06u l=500000u
X35 VGND a_183_141# X VNB sky130_fd_pr__nfet_g5v0d10v5 w=750000u l=500000u
X36 VPWR a_183_141# X VPB sky130_fd_pr__pfet_g5v0d10v5 w=1.5e+06u l=500000u
X37 VGND a_183_141# X VNB sky130_fd_pr__nfet_g5v0d10v5 w=750000u l=500000u
X38 a_183_141# A VPWR VPB sky130_fd_pr__pfet_g5v0d10v5 w=1.5e+06u l=500000u
X39 a_183_141# A VGND VNB sky130_fd_pr__nfet_g5v0d10v5 w=750000u l=500000u
X40 X a_183_141# VPWR VPB sky130_fd_pr__pfet_g5v0d10v5 w=1.5e+06u l=500000u
X41 VGND a_183_141# X VNB sky130_fd_pr__nfet_g5v0d10v5 w=750000u l=500000u
X42 VPWR A a_183_141# VPB sky130_fd_pr__pfet_g5v0d10v5 w=1.5e+06u l=500000u
X43 X a_183_141# VPWR VPB sky130_fd_pr__pfet_g5v0d10v5 w=1.5e+06u l=500000u
X44 VGND a_183_141# X VNB sky130_fd_pr__nfet_g5v0d10v5 w=750000u l=500000u
X45 a_183_141# A VGND VNB sky130_fd_pr__nfet_g5v0d10v5 w=750000u l=500000u
X46 X a_183_141# VGND VNB sky130_fd_pr__nfet_g5v0d10v5 w=750000u l=500000u
X47 X a_183_141# VPWR VPB sky130_fd_pr__pfet_g5v0d10v5 w=1.5e+06u l=500000u
X48 X a_183_141# VGND VNB sky130_fd_pr__nfet_g5v0d10v5 w=750000u l=500000u
X49 VGND a_183_141# X VNB sky130_fd_pr__nfet_g5v0d10v5 w=750000u l=500000u
X50 VGND a_183_141# X VNB sky130_fd_pr__nfet_g5v0d10v5 w=750000u l=500000u
X51 X a_183_141# VPWR VPB sky130_fd_pr__pfet_g5v0d10v5 w=1.5e+06u l=500000u
X52 a_183_141# A VGND VNB sky130_fd_pr__nfet_g5v0d10v5 w=750000u l=500000u
X53 X a_183_141# VGND VNB sky130_fd_pr__nfet_g5v0d10v5 w=750000u l=500000u
X54 VGND a_183_141# X VNB sky130_fd_pr__nfet_g5v0d10v5 w=750000u l=500000u
X55 X a_183_141# VPWR VPB sky130_fd_pr__pfet_g5v0d10v5 w=1.5e+06u l=500000u
X56 X a_183_141# VGND VNB sky130_fd_pr__nfet_g5v0d10v5 w=750000u l=500000u
X57 X a_183_141# VGND VNB sky130_fd_pr__nfet_g5v0d10v5 w=750000u l=500000u
X58 X a_183_141# VPWR VPB sky130_fd_pr__pfet_g5v0d10v5 w=1.5e+06u l=500000u
X59 VGND a_183_141# X VNB sky130_fd_pr__nfet_g5v0d10v5 w=750000u l=500000u
X60 X a_183_141# VGND VNB sky130_fd_pr__nfet_g5v0d10v5 w=750000u l=500000u
X61 VGND A a_183_141# VNB sky130_fd_pr__nfet_g5v0d10v5 w=750000u l=500000u
X62 VGND A a_183_141# VNB sky130_fd_pr__nfet_g5v0d10v5 w=750000u l=500000u
X63 VPWR a_183_141# X VPB sky130_fd_pr__pfet_g5v0d10v5 w=1.5e+06u l=500000u
X64 VGND a_183_141# X VNB sky130_fd_pr__nfet_g5v0d10v5 w=750000u l=500000u
X65 X a_183_141# VGND VNB sky130_fd_pr__nfet_g5v0d10v5 w=750000u l=500000u
X66 a_183_141# A VPWR VPB sky130_fd_pr__pfet_g5v0d10v5 w=1.5e+06u l=500000u
X67 VPWR a_183_141# X VPB sky130_fd_pr__pfet_g5v0d10v5 w=1.5e+06u l=500000u
X68 X a_183_141# VGND VNB sky130_fd_pr__nfet_g5v0d10v5 w=750000u l=500000u
X69 VGND A a_183_141# VNB sky130_fd_pr__nfet_g5v0d10v5 w=750000u l=500000u
X70 VPWR a_183_141# X VPB sky130_fd_pr__pfet_g5v0d10v5 w=1.5e+06u l=500000u
X71 VGND A a_183_141# VNB sky130_fd_pr__nfet_g5v0d10v5 w=750000u l=500000u
X72 VGND a_183_141# X VNB sky130_fd_pr__nfet_g5v0d10v5 w=750000u l=500000u
X73 X a_183_141# VGND VNB sky130_fd_pr__nfet_g5v0d10v5 w=750000u l=500000u
X74 a_183_141# A VPWR VPB sky130_fd_pr__pfet_g5v0d10v5 w=1.5e+06u l=500000u
X75 VPWR a_183_141# X VPB sky130_fd_pr__pfet_g5v0d10v5 w=1.5e+06u l=500000u
X76 VGND a_183_141# X VNB sky130_fd_pr__nfet_g5v0d10v5 w=750000u l=500000u
X77 X a_183_141# VGND VNB sky130_fd_pr__nfet_g5v0d10v5 w=750000u l=500000u
X78 X a_183_141# VPWR VPB sky130_fd_pr__pfet_g5v0d10v5 w=1.5e+06u l=500000u
X79 VPWR a_183_141# X VPB sky130_fd_pr__pfet_g5v0d10v5 w=1.5e+06u l=500000u
X80 VGND a_183_141# X VNB sky130_fd_pr__nfet_g5v0d10v5 w=750000u l=500000u
X81 X a_183_141# VPWR VPB sky130_fd_pr__pfet_g5v0d10v5 w=1.5e+06u l=500000u
X82 VPWR a_183_141# X VPB sky130_fd_pr__pfet_g5v0d10v5 w=1.5e+06u l=500000u
X83 VGND a_183_141# X VNB sky130_fd_pr__nfet_g5v0d10v5 w=750000u l=500000u
.ends


******* EOF

* Copyright 2020 The SkyWater PDK Authors
*
* Licensed under the Apache License, Version 2.0 (the "License");
* you may not use this file except in compliance with the License.
* You may obtain a copy of the License at
*
*     https://www.apache.org/licenses/LICENSE-2.0
*
* Unless required by applicable law or agreed to in writing, software
* distributed under the License is distributed on an "AS IS" BASIS,
* WITHOUT WARRANTIES OR CONDITIONS OF ANY KIND, either express or implied.
* See the License for the specific language governing permissions and
* limitations under the License.
*
* SPDX-License-Identifier: Apache-2.0


.subckt sky130_fd_sc_hvl__conb_1 VGND VNB VPB VPWR HI LO
R0 HI VPWR sky130_fd_pr__res_generic_po w=510000u l=45000u
R1 VGND LO sky130_fd_pr__res_generic_po w=510000u l=45000u
.ends


******* EOF

* Copyright 2020 The SkyWater PDK Authors
*
* Licensed under the Apache License, Version 2.0 (the "License");
* you may not use this file except in compliance with the License.
* You may obtain a copy of the License at
*
*     https://www.apache.org/licenses/LICENSE-2.0
*
* Unless required by applicable law or agreed to in writing, software
* distributed under the License is distributed on an "AS IS" BASIS,
* WITHOUT WARRANTIES OR CONDITIONS OF ANY KIND, either express or implied.
* See the License for the specific language governing permissions and
* limitations under the License.
*
* SPDX-License-Identifier: Apache-2.0


.subckt sky130_fd_sc_hvl__decap_4 VGND VNB VPB VPWR
X0 VGND VPWR VGND VNB sky130_fd_pr__nfet_g5v0d10v5 w=750000u l=1e+06u
X1 VPWR VGND VPWR VPB sky130_fd_pr__pfet_g5v0d10v5 w=1e+06u l=1e+06u
.ends


******* EOF

* Copyright 2020 The SkyWater PDK Authors
*
* Licensed under the Apache License, Version 2.0 (the "License");
* you may not use this file except in compliance with the License.
* You may obtain a copy of the License at
*
*     https://www.apache.org/licenses/LICENSE-2.0
*
* Unless required by applicable law or agreed to in writing, software
* distributed under the License is distributed on an "AS IS" BASIS,
* WITHOUT WARRANTIES OR CONDITIONS OF ANY KIND, either express or implied.
* See the License for the specific language governing permissions and
* limitations under the License.
*
* SPDX-License-Identifier: Apache-2.0


.subckt sky130_fd_sc_hvl__decap_8 VGND VNB VPB VPWR
X0 VGND VPWR VGND VNB sky130_fd_pr__nfet_g5v0d10v5 w=750000u l=1e+06u
X1 VPWR VGND VPWR VPB sky130_fd_pr__pfet_g5v0d10v5 w=1e+06u l=1e+06u
X2 VPWR VGND VPWR VPB sky130_fd_pr__pfet_g5v0d10v5 w=1e+06u l=1e+06u
X3 VGND VPWR VGND VNB sky130_fd_pr__nfet_g5v0d10v5 w=750000u l=1e+06u
.ends


******* EOF

* Copyright 2020 The SkyWater PDK Authors
*
* Licensed under the Apache License, Version 2.0 (the "License");
* you may not use this file except in compliance with the License.
* You may obtain a copy of the License at
*
*     https://www.apache.org/licenses/LICENSE-2.0
*
* Unless required by applicable law or agreed to in writing, software
* distributed under the License is distributed on an "AS IS" BASIS,
* WITHOUT WARRANTIES OR CONDITIONS OF ANY KIND, either express or implied.
* See the License for the specific language governing permissions and
* limitations under the License.
*
* SPDX-License-Identifier: Apache-2.0


.subckt sky130_fd_sc_hvl__dfrbp_1 CLK D RESET_B VGND VNB VPB VPWR Q Q_N
X0 a_1176_466# a_350_107# a_1900_107# VNB sky130_fd_pr__nfet_g5v0d10v5 w=750000u l=500000u
X1 a_37_107# CLK VGND VNB sky130_fd_pr__nfet_g5v0d10v5 w=420000u l=500000u
X2 VGND a_2937_443# Q VNB sky130_fd_pr__nfet_g5v0d10v5 w=750000u l=500000u
X3 a_2122_348# a_1900_107# VPWR VPB sky130_fd_pr__pfet_g5v0d10v5 w=420000u l=500000u
X4 VPWR RESET_B a_978_608# VPB sky130_fd_pr__pfet_g5v0d10v5 w=420000u l=500000u
X5 VGND a_37_107# a_350_107# VNB sky130_fd_pr__nfet_g5v0d10v5 w=420000u l=500000u
X6 a_978_608# a_350_107# a_1215_173# VNB sky130_fd_pr__nfet_g5v0d10v5 w=420000u l=500000u
X7 VPWR a_2937_443# Q VPB sky130_fd_pr__pfet_g5v0d10v5 w=1.5e+06u l=500000u
X8 a_2412_107# a_1900_107# a_2122_348# VNB sky130_fd_pr__nfet_g5v0d10v5 w=420000u l=500000u
X9 a_978_608# a_37_107# a_1134_608# VPB sky130_fd_pr__pfet_g5v0d10v5 w=420000u l=500000u
X10 VPWR a_37_107# a_350_107# VPB sky130_fd_pr__pfet_g5v0d10v5 w=750000u l=500000u
X11 a_2114_107# a_2122_348# VGND VNB sky130_fd_pr__nfet_g5v0d10v5 w=420000u l=500000u
X12 a_2937_443# a_1900_107# VGND VNB sky130_fd_pr__nfet_g5v0d10v5 w=420000u l=500000u
X13 a_1900_107# a_350_107# a_2079_462# VPB sky130_fd_pr__pfet_g5v0d10v5 w=420000u l=500000u
X14 VPWR a_1900_107# Q_N VPB sky130_fd_pr__pfet_g5v0d10v5 w=1.5e+06u l=500000u
X15 a_2079_462# a_2122_348# VPWR VPB sky130_fd_pr__pfet_g5v0d10v5 w=420000u l=500000u
X16 a_509_608# a_37_107# a_978_608# VNB sky130_fd_pr__nfet_g5v0d10v5 w=420000u l=500000u
X17 VGND RESET_B a_2412_107# VNB sky130_fd_pr__nfet_g5v0d10v5 w=420000u l=500000u
X18 VGND a_1900_107# Q_N VNB sky130_fd_pr__nfet_g5v0d10v5 w=750000u l=500000u
X19 a_1357_173# RESET_B VGND VNB sky130_fd_pr__nfet_g5v0d10v5 w=420000u l=500000u
X20 VPWR a_978_608# a_1176_466# VPB sky130_fd_pr__pfet_g5v0d10v5 w=1e+06u l=500000u
X21 a_1215_173# a_1176_466# a_1357_173# VNB sky130_fd_pr__nfet_g5v0d10v5 w=420000u l=500000u
X22 a_509_608# RESET_B VPWR VPB sky130_fd_pr__pfet_g5v0d10v5 w=420000u l=500000u