*SPEF "ieee 1481-1999"
*DESIGN "caravel"
*DATE "11:11:11 Fri 11 11, 1111"
*VENDOR "OpenRCX"
*PROGRAM "Parallel Extraction"
*VERSION "1.0"
*DESIGN_FLOW "NAME_SCOPE LOCAL" "PIN_CAP NONE"
*DIVIDER /
*DELIMITER :
*BUS_DELIMITER []
*T_UNIT 1 NS
*C_UNIT 1 PF
*R_UNIT 1 OHM
*L_UNIT 1 HENRY

*NAME_MAP
*1 caravel_clk
*2 caravel_clk2
*3 caravel_rstn
*4 clk_passthru
*5 clock_core
*6 debug_in
*7 debug_mode
*8 debug_oeb
*9 debug_out
*10 ext_clk_sel
*11 ext_reset
*12 flash_clk_core
*13 flash_clk_frame
*14 flash_clk_oeb
*15 flash_csb_core
*16 flash_csb_frame
*17 flash_csb_oeb
*18 flash_io0_di
*19 flash_io0_di_core
*20 flash_io0_do
*21 flash_io0_do_core
*22 flash_io0_ieb
*23 flash_io0_oeb
*24 flash_io0_oeb_core
*25 flash_io1_di
*26 flash_io1_di_core
*27 flash_io1_do
*28 flash_io1_do_core
*29 flash_io1_ieb
*30 flash_io1_oeb
*31 flash_io1_oeb_core
*32 flash_io2_di_core
*33 flash_io2_do_core
*34 flash_io2_oeb_core
*35 flash_io3_di_core
*36 flash_io3_do_core
*37 flash_io3_oeb_core
*38 gpio_clock_1\[0\]
*39 gpio_clock_1\[10\]
*40 gpio_clock_1\[11\]
*41 gpio_clock_1\[12\]
*42 gpio_clock_1\[13\]
*43 gpio_clock_1\[14\]
*44 gpio_clock_1\[15\]
*45 gpio_clock_1\[16\]
*46 gpio_clock_1\[17\]
*47 gpio_clock_1\[1\]
*48 gpio_clock_1\[2\]
*49 gpio_clock_1\[3\]
*50 gpio_clock_1\[4\]
*51 gpio_clock_1\[5\]
*52 gpio_clock_1\[6\]
*53 gpio_clock_1\[7\]
*54 gpio_clock_1\[8\]
*55 gpio_clock_1\[9\]
*56 gpio_clock_1_shifted\[0\]
*57 gpio_clock_2\[10\]
*58 gpio_clock_2\[11\]
*59 gpio_clock_2\[12\]
*60 gpio_clock_2\[13\]
*61 gpio_clock_2\[14\]
*62 gpio_clock_2\[15\]
*63 gpio_clock_2\[16\]
*64 gpio_clock_2\[17\]
*65 gpio_clock_2\[18\]
*66 gpio_clock_2\[1\]
*67 gpio_clock_2\[2\]
*68 gpio_clock_2\[3\]
*69 gpio_clock_2\[4\]
*70 gpio_clock_2\[5\]
*71 gpio_clock_2\[6\]
*72 gpio_clock_2\[7\]
*73 gpio_clock_2\[8\]
*74 gpio_clock_2\[9\]
*75 gpio_defaults\[0\]
*76 gpio_defaults\[100\]
*77 gpio_defaults\[101\]
*78 gpio_defaults\[102\]
*79 gpio_defaults\[103\]
*80 gpio_defaults\[104\]
*81 gpio_defaults\[105\]
*82 gpio_defaults\[106\]
*83 gpio_defaults\[107\]
*84 gpio_defaults\[108\]
*85 gpio_defaults\[109\]
*86 gpio_defaults\[10\]
*87 gpio_defaults\[110\]
*88 gpio_defaults\[111\]
*89 gpio_defaults\[112\]
*90 gpio_defaults\[113\]
*91 gpio_defaults\[114\]
*92 gpio_defaults\[115\]
*93 gpio_defaults\[116\]
*94 gpio_defaults\[117\]
*95 gpio_defaults\[118\]
*96 gpio_defaults\[119\]
*97 gpio_defaults\[11\]
*98 gpio_defaults\[120\]
*99 gpio_defaults\[121\]
*100 gpio_defaults\[122\]
*101 gpio_defaults\[123\]
*102 gpio_defaults\[124\]
*103 gpio_defaults\[125\]
*104 gpio_defaults\[126\]
*105 gpio_defaults\[127\]
*106 gpio_defaults\[128\]
*107 gpio_defaults\[129\]
*108 gpio_defaults\[12\]
*109 gpio_defaults\[130\]
*110 gpio_defaults\[131\]
*111 gpio_defaults\[132\]
*112 gpio_defaults\[133\]
*113 gpio_defaults\[134\]
*114 gpio_defaults\[135\]
*115 gpio_defaults\[136\]
*116 gpio_defaults\[137\]
*117 gpio_defaults\[138\]
*118 gpio_defaults\[139\]
*119 gpio_defaults\[13\]
*120 gpio_defaults\[140\]
*121 gpio_defaults\[141\]
*122 gpio_defaults\[142\]
*123 gpio_defaults\[143\]
*124 gpio_defaults\[144\]
*125 gpio_defaults\[145\]
*126 gpio_defaults\[146\]
*127 gpio_defaults\[147\]
*128 gpio_defaults\[148\]
*129 gpio_defaults\[149\]
*130 gpio_defaults\[14\]
*131 gpio_defaults\[150\]
*132 gpio_defaults\[151\]
*133 gpio_defaults\[152\]
*134 gpio_defaults\[153\]
*135 gpio_defaults\[154\]
*136 gpio_defaults\[155\]
*137 gpio_defaults\[156\]
*138 gpio_defaults\[157\]
*139 gpio_defaults\[158\]
*140 gpio_defaults\[159\]
*141 gpio_defaults\[15\]
*142 gpio_defaults\[160\]
*143 gpio_defaults\[161\]
*144 gpio_defaults\[162\]
*145 gpio_defaults\[163\]
*146 gpio_defaults\[164\]
*147 gpio_defaults\[165\]
*148 gpio_defaults\[166\]
*149 gpio_defaults\[167\]
*150 gpio_defaults\[168\]
*151 gpio_defaults\[169\]
*152 gpio_defaults\[16\]
*153 gpio_defaults\[170\]
*154 gpio_defaults\[171\]
*155 gpio_defaults\[172\]
*156 gpio_defaults\[173\]
*157 gpio_defaults\[174\]
*158 gpio_defaults\[175\]
*159 gpio_defaults\[176\]
*160 gpio_defaults\[177\]
*161 gpio_defaults\[178\]
*162 gpio_defaults\[179\]
*163 gpio_defaults\[17\]
*164 gpio_defaults\[180\]
*165 gpio_defaults\[181\]
*166 gpio_defaults\[182\]
*167 gpio_defaults\[183\]
*168 gpio_defaults\[184\]
*169 gpio_defaults\[185\]
*170 gpio_defaults\[186\]
*171 gpio_defaults\[187\]
*172 gpio_defaults\[188\]
*173 gpio_defaults\[189\]
*174 gpio_defaults\[18\]
*175 gpio_defaults\[190\]
*176 gpio_defaults\[191\]
*177 gpio_defaults\[192\]
*178 gpio_defaults\[193\]
*179 gpio_defaults\[194\]
*180 gpio_defaults\[195\]
*181 gpio_defaults\[196\]
*182 gpio_defaults\[197\]
*183 gpio_defaults\[198\]
*184 gpio_defaults\[199\]
*185 gpio_defaults\[19\]
*186 gpio_defaults\[1\]
*187 gpio_defaults\[200\]
*188 gpio_defaults\[201\]
*189 gpio_defaults\[202\]
*190 gpio_defaults\[203\]
*191 gpio_defaults\[204\]
*192 gpio_defaults\[205\]
*193 gpio_defaults\[206\]
*194 gpio_defaults\[207\]
*195 gpio_defaults\[208\]
*196 gpio_defaults\[209\]
*197 gpio_defaults\[20\]
*198 gpio_defaults\[210\]
*199 gpio_defaults\[211\]
*200 gpio_defaults\[212\]
*201 gpio_defaults\[213\]
*202 gpio_defaults\[214\]
*203 gpio_defaults\[215\]
*204 gpio_defaults\[216\]
*205 gpio_defaults\[217\]
*206 gpio_defaults\[218\]
*207 gpio_defaults\[219\]
*208 gpio_defaults\[21\]
*209 gpio_defaults\[220\]
*210 gpio_defaults\[221\]
*211 gpio_defaults\[222\]
*212 gpio_defaults\[223\]
*213 gpio_defaults\[224\]
*214 gpio_defaults\[225\]
*215 gpio_defaults\[226\]
*216 gpio_defaults\[227\]
*217 gpio_defaults\[228\]
*218 gpio_defaults\[229\]
*219 gpio_defaults\[22\]
*220 gpio_defaults\[230\]
*221 gpio_defaults\[231\]
*222 gpio_defaults\[232\]
*223 gpio_defaults\[233\]
*224 gpio_defaults\[234\]
*225 gpio_defaults\[235\]
*226 gpio_defaults\[236\]
*227 gpio_defaults\[237\]
*228 gpio_defaults\[238\]
*229 gpio_defaults\[239\]
*230 gpio_defaults\[23\]
*231 gpio_defaults\[240\]
*232 gpio_defaults\[241\]
*233 gpio_defaults\[242\]
*234 gpio_defaults\[243\]
*235 gpio_defaults\[244\]
*236 gpio_defaults\[245\]
*237 gpio_defaults\[246\]
*238 gpio_defaults\[247\]
*239 gpio_defaults\[248\]
*240 gpio_defaults\[249\]
*241 gpio_defaults\[24\]
*242 gpio_defaults\[250\]
*243 gpio_defaults\[251\]
*244 gpio_defaults\[252\]
*245 gpio_defaults\[253\]
*246 gpio_defaults\[254\]
*247 gpio_defaults\[255\]
*248 gpio_defaults\[256\]
*249 gpio_defaults\[257\]
*250 gpio_defaults\[258\]
*251 gpio_defaults\[259\]
*252 gpio_defaults\[25\]
*253 gpio_defaults\[260\]
*254 gpio_defaults\[261\]
*255 gpio_defaults\[262\]
*256 gpio_defaults\[263\]
*257 gpio_defaults\[264\]
*258 gpio_defaults\[265\]
*259 gpio_defaults\[266\]
*260 gpio_defaults\[267\]
*261 gpio_defaults\[268\]
*262 gpio_defaults\[269\]
*263 gpio_defaults\[26\]
*264 gpio_defaults\[270\]
*265 gpio_defaults\[271\]
*266 gpio_defaults\[272\]
*267 gpio_defaults\[273\]
*268 gpio_defaults\[274\]
*269 gpio_defaults\[275\]
*270 gpio_defaults\[276\]
*271 gpio_defaults\[277\]
*272 gpio_defaults\[278\]
*273 gpio_defaults\[279\]
*274 gpio_defaults\[27\]
*275 gpio_defaults\[280\]
*276 gpio_defaults\[281\]
*277 gpio_defaults\[282\]
*278 gpio_defaults\[283\]
*279 gpio_defaults\[284\]
*280 gpio_defaults\[285\]
*281 gpio_defaults\[286\]
*282 gpio_defaults\[287\]
*283 gpio_defaults\[288\]
*284 gpio_defaults\[289\]
*285 gpio_defaults\[28\]
*286 gpio_defaults\[290\]
*287 gpio_defaults\[291\]
*288 gpio_defaults\[292\]
*289 gpio_defaults\[293\]
*290 gpio_defaults\[294\]
*291 gpio_defaults\[295\]
*292 gpio_defaults\[296\]
*293 gpio_defaults\[297\]
*294 gpio_defaults\[298\]
*295 gpio_defaults\[299\]
*296 gpio_defaults\[29\]
*297 gpio_defaults\[2\]
*298 gpio_defaults\[300\]
*299 gpio_defaults\[301\]
*300 gpio_defaults\[302\]
*301 gpio_defaults\[303\]
*302 gpio_defaults\[304\]
*303 gpio_defaults\[305\]
*304 gpio_defaults\[306\]
*305 gpio_defaults\[307\]
*306 gpio_defaults\[308\]
*307 gpio_defaults\[309\]
*308 gpio_defaults\[30\]
*309 gpio_defaults\[310\]
*310 gpio_defaults\[311\]
*311 gpio_defaults\[312\]
*312 gpio_defaults\[313\]
*313 gpio_defaults\[314\]
*314 gpio_defaults\[315\]
*315 gpio_defaults\[316\]
*316 gpio_defaults\[317\]
*317 gpio_defaults\[318\]
*318 gpio_defaults\[319\]
*319 gpio_defaults\[31\]
*320 gpio_defaults\[320\]
*321 gpio_defaults\[321\]
*322 gpio_defaults\[322\]
*323 gpio_defaults\[323\]
*324 gpio_defaults\[324\]
*325 gpio_defaults\[325\]
*326 gpio_defaults\[326\]
*327 gpio_defaults\[327\]
*328 gpio_defaults\[328\]
*329 gpio_defaults\[329\]
*330 gpio_defaults\[32\]
*331 gpio_defaults\[330\]
*332 gpio_defaults\[331\]
*333 gpio_defaults\[332\]
*334 gpio_defaults\[333\]
*335 gpio_defaults\[334\]
*336 gpio_defaults\[335\]
*337 gpio_defaults\[336\]
*338 gpio_defaults\[337\]
*339 gpio_defaults\[338\]
*340 gpio_defaults\[339\]
*341 gpio_defaults\[33\]
*342 gpio_defaults\[340\]
*343 gpio_defaults\[341\]
*344 gpio_defaults\[342\]
*345 gpio_defaults\[343\]
*346 gpio_defaults\[344\]
*347 gpio_defaults\[345\]
*348 gpio_defaults\[346\]
*349 gpio_defaults\[347\]
*350 gpio_defaults\[348\]
*351 gpio_defaults\[349\]
*352 gpio_defaults\[34\]
*353 gpio_defaults\[350\]
*354 gpio_defaults\[351\]
*355 gpio_defaults\[352\]
*356 gpio_defaults\[353\]
*357 gpio_defaults\[354\]
*358 gpio_defaults\[355\]
*359 gpio_defaults\[356\]
*360 gpio_defaults\[357\]
*361 gpio_defaults\[358\]
*362 gpio_defaults\[359\]
*363 gpio_defaults\[35\]
*364 gpio_defaults\[360\]
*365 gpio_defaults\[361\]
*366 gpio_defaults\[362\]
*367 gpio_defaults\[363\]
*368 gpio_defaults\[364\]
*369 gpio_defaults\[365\]
*370 gpio_defaults\[366\]
*371 gpio_defaults\[367\]
*372 gpio_defaults\[368\]
*373 gpio_defaults\[369\]
*374 gpio_defaults\[36\]
*375 gpio_defaults\[370\]
*376 gpio_defaults\[371\]
*377 gpio_defaults\[372\]
*378 gpio_defaults\[373\]
*379 gpio_defaults\[374\]
*380 gpio_defaults\[375\]
*381 gpio_defaults\[376\]
*382 gpio_defaults\[377\]
*383 gpio_defaults\[378\]
*384 gpio_defaults\[379\]
*385 gpio_defaults\[37\]
*386 gpio_defaults\[380\]
*387 gpio_defaults\[381\]
*388 gpio_defaults\[382\]
*389 gpio_defaults\[383\]
*390 gpio_defaults\[384\]
*391 gpio_defaults\[385\]
*392 gpio_defaults\[386\]
*393 gpio_defaults\[387\]
*394 gpio_defaults\[388\]
*395 gpio_defaults\[389\]
*396 gpio_defaults\[38\]
*397 gpio_defaults\[390\]
*398 gpio_defaults\[391\]
*399 gpio_defaults\[392\]
*400 gpio_defaults\[393\]
*401 gpio_defaults\[394\]
*402 gpio_defaults\[395\]
*403 gpio_defaults\[396\]
*404 gpio_defaults\[397\]
*405 gpio_defaults\[398\]
*406 gpio_defaults\[399\]
*407 gpio_defaults\[39\]
*408 gpio_defaults\[3\]
*409 gpio_defaults\[400\]
*410 gpio_defaults\[401\]
*411 gpio_defaults\[402\]
*412 gpio_defaults\[403\]
*413 gpio_defaults\[404\]
*414 gpio_defaults\[405\]
*415 gpio_defaults\[406\]
*416 gpio_defaults\[407\]
*417 gpio_defaults\[408\]
*418 gpio_defaults\[409\]
*419 gpio_defaults\[40\]
*420 gpio_defaults\[410\]
*421 gpio_defaults\[411\]
*422 gpio_defaults\[412\]
*423 gpio_defaults\[413\]
*424 gpio_defaults\[414\]
*425 gpio_defaults\[415\]
*426 gpio_defaults\[416\]
*427 gpio_defaults\[417\]
*428 gpio_defaults\[418\]
*429 gpio_defaults\[419\]
*430 gpio_defaults\[41\]
*431 gpio_defaults\[420\]
*432 gpio_defaults\[421\]
*433 gpio_defaults\[422\]
*434 gpio_defaults\[423\]
*435 gpio_defaults\[424\]
*436 gpio_defaults\[425\]
*437 gpio_defaults\[426\]
*438 gpio_defaults\[427\]
*439 gpio_defaults\[428\]
*440 gpio_defaults\[429\]
*441 gpio_defaults\[42\]
*442 gpio_defaults\[430\]
*443 gpio_defaults\[431\]
*444 gpio_defaults\[432\]
*445 gpio_defaults\[433\]
*446 gpio_defaults\[434\]
*447 gpio_defaults\[435\]
*448 gpio_defaults\[436\]
*449 gpio_defaults\[437\]
*450 gpio_defaults\[438\]
*451 gpio_defaults\[439\]
*452 gpio_defaults\[43\]
*453 gpio_defaults\[440\]
*454 gpio_defaults\[441\]
*455 gpio_defaults\[442\]
*456 gpio_defaults\[443\]
*457 gpio_defaults\[444\]
*458 gpio_defaults\[445\]
*459 gpio_defaults\[446\]
*460 gpio_defaults\[447\]
*461 gpio_defaults\[448\]
*462 gpio_defaults\[449\]
*463 gpio_defaults\[44\]
*464 gpio_defaults\[450\]
*465 gpio_defaults\[451\]
*466 gpio_defaults\[452\]
*467 gpio_defaults\[453\]
*468 gpio_defaults\[454\]
*469 gpio_defaults\[455\]
*470 gpio_defaults\[456\]
*471 gpio_defaults\[457\]
*472 gpio_defaults\[458\]
*473 gpio_defaults\[459\]
*474 gpio_defaults\[45\]
*475 gpio_defaults\[460\]
*476 gpio_defaults\[461\]
*477 gpio_defaults\[462\]
*478 gpio_defaults\[463\]
*479 gpio_defaults\[464\]
*480 gpio_defaults\[465\]
*481 gpio_defaults\[466\]
*482 gpio_defaults\[467\]
*483 gpio_defaults\[468\]
*484 gpio_defaults\[469\]
*485 gpio_defaults\[46\]
*486 gpio_defaults\[470\]
*487 gpio_defaults\[471\]
*488 gpio_defaults\[472\]
*489 gpio_defaults\[473\]
*490 gpio_defaults\[474\]
*491 gpio_defaults\[475\]
*492 gpio_defaults\[476\]
*493 gpio_defaults\[477\]
*494 gpio_defaults\[478\]
*495 gpio_defaults\[479\]
*496 gpio_defaults\[47\]
*497 gpio_defaults\[480\]
*498 gpio_defaults\[481\]
*499 gpio_defaults\[482\]
*500 gpio_defaults\[483\]
*501 gpio_defaults\[484\]
*502 gpio_defaults\[485\]
*503 gpio_defaults\[486\]
*504 gpio_defaults\[487\]
*505 gpio_defaults\[488\]
*506 gpio_defaults\[489\]
*507 gpio_defaults\[48\]
*508 gpio_defaults\[490\]
*509 gpio_defaults\[491\]
*510 gpio_defaults\[492\]
*511 gpio_defaults\[493\]
*512 gpio_defaults\[49\]
*513 gpio_defaults\[4\]
*514 gpio_defaults\[50\]
*515 gpio_defaults\[51\]
*516 gpio_defaults\[52\]
*517 gpio_defaults\[53\]
*518 gpio_defaults\[54\]
*519 gpio_defaults\[55\]
*520 gpio_defaults\[56\]
*521 gpio_defaults\[57\]
*522 gpio_defaults\[58\]
*523 gpio_defaults\[59\]
*524 gpio_defaults\[5\]
*525 gpio_defaults\[60\]
*526 gpio_defaults\[61\]
*527 gpio_defaults\[62\]
*528 gpio_defaults\[63\]
*529 gpio_defaults\[64\]
*530 gpio_defaults\[65\]
*531 gpio_defaults\[66\]
*532 gpio_defaults\[67\]
*533 gpio_defaults\[68\]
*534 gpio_defaults\[69\]
*535 gpio_defaults\[6\]
*536 gpio_defaults\[70\]
*537 gpio_defaults\[71\]
*538 gpio_defaults\[72\]
*539 gpio_defaults\[73\]
*540 gpio_defaults\[74\]
*541 gpio_defaults\[75\]
*542 gpio_defaults\[76\]
*543 gpio_defaults\[77\]
*544 gpio_defaults\[78\]
*545 gpio_defaults\[79\]
*546 gpio_defaults\[7\]
*547 gpio_defaults\[80\]
*548 gpio_defaults\[81\]
*549 gpio_defaults\[82\]
*550 gpio_defaults\[83\]
*551 gpio_defaults\[84\]
*552 gpio_defaults\[85\]
*553 gpio_defaults\[86\]
*554 gpio_defaults\[87\]
*555 gpio_defaults\[88\]
*556 gpio_defaults\[89\]
*557 gpio_defaults\[8\]
*558 gpio_defaults\[90\]
*559 gpio_defaults\[91\]
*560 gpio_defaults\[92\]
*561 gpio_defaults\[93\]
*562 gpio_defaults\[94\]
*563 gpio_defaults\[95\]
*564 gpio_defaults\[96\]
*565 gpio_defaults\[97\]
*566 gpio_defaults\[98\]
*567 gpio_defaults\[99\]
*568 gpio_defaults\[9\]
*569 gpio_in_core
*570 gpio_inenb_core
*571 gpio_load_1\[0\]
*572 gpio_load_1\[10\]
*573 gpio_load_1\[11\]
*574 gpio_load_1\[12\]
*575 gpio_load_1\[13\]
*576 gpio_load_1\[14\]
*577 gpio_load_1\[15\]
*578 gpio_load_1\[16\]
*579 gpio_load_1\[17\]
*580 gpio_load_1\[1\]
*581 gpio_load_1\[2\]
*582 gpio_load_1\[3\]
*583 gpio_load_1\[4\]
*584 gpio_load_1\[5\]
*585 gpio_load_1\[6\]
*586 gpio_load_1\[7\]
*587 gpio_load_1\[8\]
*588 gpio_load_1\[9\]
*589 gpio_load_1_shifted\[0\]
*590 gpio_load_2\[10\]
*591 gpio_load_2\[11\]
*592 gpio_load_2\[12\]
*593 gpio_load_2\[13\]
*594 gpio_load_2\[14\]
*595 gpio_load_2\[15\]
*596 gpio_load_2\[16\]
*597 gpio_load_2\[17\]
*598 gpio_load_2\[18\]
*599 gpio_load_2\[1\]
*600 gpio_load_2\[2\]
*601 gpio_load_2\[3\]
*602 gpio_load_2\[4\]
*603 gpio_load_2\[5\]
*604 gpio_load_2\[6\]
*605 gpio_load_2\[7\]
*606 gpio_load_2\[8\]
*607 gpio_load_2\[9\]
*608 gpio_mode0_core
*609 gpio_mode1_core
*610 gpio_out_core
*611 gpio_outenb_core
*612 gpio_resetn_1\[0\]
*613 gpio_resetn_1\[10\]
*614 gpio_resetn_1\[11\]
*615 gpio_resetn_1\[12\]
*616 gpio_resetn_1\[13\]
*617 gpio_resetn_1\[14\]
*618 gpio_resetn_1\[15\]
*619 gpio_resetn_1\[16\]
*620 gpio_resetn_1\[17\]
*621 gpio_resetn_1\[1\]
*622 gpio_resetn_1\[2\]
*623 gpio_resetn_1\[3\]
*624 gpio_resetn_1\[4\]
*625 gpio_resetn_1\[5\]
*626 gpio_resetn_1\[6\]
*627 gpio_resetn_1\[7\]
*628 gpio_resetn_1\[8\]
*629 gpio_resetn_1\[9\]
*630 gpio_resetn_1_shifted\[0\]
*631 gpio_resetn_2\[10\]
*632 gpio_resetn_2\[11\]
*633 gpio_resetn_2\[12\]
*634 gpio_resetn_2\[13\]
*635 gpio_resetn_2\[14\]
*636 gpio_resetn_2\[15\]
*637 gpio_resetn_2\[16\]
*638 gpio_resetn_2\[17\]
*639 gpio_resetn_2\[18\]
*640 gpio_resetn_2\[1\]
*641 gpio_resetn_2\[2\]
*642 gpio_resetn_2\[3\]
*643 gpio_resetn_2\[4\]
*644 gpio_resetn_2\[5\]
*645 gpio_resetn_2\[6\]
*646 gpio_resetn_2\[7\]
*647 gpio_resetn_2\[8\]
*648 gpio_resetn_2\[9\]
*649 gpio_serial_link_1\[0\]
*650 gpio_serial_link_1\[10\]
*651 gpio_serial_link_1\[11\]
*652 gpio_serial_link_1\[12\]
*653 gpio_serial_link_1\[13\]
*654 gpio_serial_link_1\[14\]
*655 gpio_serial_link_1\[15\]
*656 gpio_serial_link_1\[16\]
*657 gpio_serial_link_1\[17\]
*658 gpio_serial_link_1\[1\]
*659 gpio_serial_link_1\[2\]
*660 gpio_serial_link_1\[3\]
*661 gpio_serial_link_1\[4\]
*662 gpio_serial_link_1\[5\]
*663 gpio_serial_link_1\[6\]
*664 gpio_serial_link_1\[7\]
*665 gpio_serial_link_1\[8\]
*666 gpio_serial_link_1\[9\]
*667 gpio_serial_link_1_shifted\[0\]
*668 gpio_serial_link_2\[10\]
*669 gpio_serial_link_2\[11\]
*670 gpio_serial_link_2\[12\]
*671 gpio_serial_link_2\[13\]
*672 gpio_serial_link_2\[14\]
*673 gpio_serial_link_2\[15\]
*674 gpio_serial_link_2\[16\]
*675 gpio_serial_link_2\[17\]
*676 gpio_serial_link_2\[18\]
*677 gpio_serial_link_2\[1\]
*678 gpio_serial_link_2\[2\]
*679 gpio_serial_link_2\[3\]
*680 gpio_serial_link_2\[4\]
*681 gpio_serial_link_2\[5\]
*682 gpio_serial_link_2\[6\]
*683 gpio_serial_link_2\[7\]
*684 gpio_serial_link_2\[8\]
*685 gpio_serial_link_2\[9\]
*686 gpio_serial_link_2_shifted\[18\]
*687 hk_ack_i
*688 hk_cyc_o
*689 hk_dat_i\[0\]
*690 hk_dat_i\[10\]
*691 hk_dat_i\[11\]
*692 hk_dat_i\[12\]
*693 hk_dat_i\[13\]
*694 hk_dat_i\[14\]
*695 hk_dat_i\[15\]
*696 hk_dat_i\[16\]
*697 hk_dat_i\[17\]
*698 hk_dat_i\[18\]
*699 hk_dat_i\[19\]
*700 hk_dat_i\[1\]
*701 hk_dat_i\[20\]
*702 hk_dat_i\[21\]
*703 hk_dat_i\[22\]
*704 hk_dat_i\[23\]
*705 hk_dat_i\[24\]
*706 hk_dat_i\[25\]
*707 hk_dat_i\[26\]
*708 hk_dat_i\[27\]
*709 hk_dat_i\[28\]
*710 hk_dat_i\[29\]
*711 hk_dat_i\[2\]
*712 hk_dat_i\[30\]
*713 hk_dat_i\[31\]
*714 hk_dat_i\[3\]
*715 hk_dat_i\[4\]
*716 hk_dat_i\[5\]
*717 hk_dat_i\[6\]
*718 hk_dat_i\[7\]
*719 hk_dat_i\[8\]
*720 hk_dat_i\[9\]
*721 hk_stb_o
*722 irq_spi\[0\]
*723 irq_spi\[1\]
*724 irq_spi\[2\]
*725 la_data_in_mprj\[0\]
*726 la_data_in_mprj\[100\]
*727 la_data_in_mprj\[101\]
*728 la_data_in_mprj\[102\]
*729 la_data_in_mprj\[103\]
*730 la_data_in_mprj\[104\]
*731 la_data_in_mprj\[105\]
*732 la_data_in_mprj\[106\]
*733 la_data_in_mprj\[107\]
*734 la_data_in_mprj\[108\]
*735 la_data_in_mprj\[109\]
*736 la_data_in_mprj\[10\]
*737 la_data_in_mprj\[110\]
*738 la_data_in_mprj\[111\]
*739 la_data_in_mprj\[112\]
*740 la_data_in_mprj\[113\]
*741 la_data_in_mprj\[114\]
*742 la_data_in_mprj\[115\]
*743 la_data_in_mprj\[116\]
*744 la_data_in_mprj\[117\]
*745 la_data_in_mprj\[118\]
*746 la_data_in_mprj\[119\]
*747 la_data_in_mprj\[11\]
*748 la_data_in_mprj\[120\]
*749 la_data_in_mprj\[121\]
*750 la_data_in_mprj\[122\]
*751 la_data_in_mprj\[123\]
*752 la_data_in_mprj\[124\]
*753 la_data_in_mprj\[125\]
*754 la_data_in_mprj\[126\]
*755 la_data_in_mprj\[127\]
*756 la_data_in_mprj\[12\]
*757 la_data_in_mprj\[13\]
*758 la_data_in_mprj\[14\]
*759 la_data_in_mprj\[15\]
*760 la_data_in_mprj\[16\]
*761 la_data_in_mprj\[17\]
*762 la_data_in_mprj\[18\]
*763 la_data_in_mprj\[19\]
*764 la_data_in_mprj\[1\]
*765 la_data_in_mprj\[20\]
*766 la_data_in_mprj\[21\]
*767 la_data_in_mprj\[22\]
*768 la_data_in_mprj\[23\]
*769 la_data_in_mprj\[24\]
*770 la_data_in_mprj\[25\]
*771 la_data_in_mprj\[26\]
*772 la_data_in_mprj\[27\]
*773 la_data_in_mprj\[28\]
*774 la_data_in_mprj\[29\]
*775 la_data_in_mprj\[2\]
*776 la_data_in_mprj\[30\]
*777 la_data_in_mprj\[31\]
*778 la_data_in_mprj\[32\]
*779 la_data_in_mprj\[33\]
*780 la_data_in_mprj\[34\]
*781 la_data_in_mprj\[35\]
*782 la_data_in_mprj\[36\]
*783 la_data_in_mprj\[37\]
*784 la_data_in_mprj\[38\]
*785 la_data_in_mprj\[39\]
*786 la_data_in_mprj\[3\]
*787 la_data_in_mprj\[40\]
*788 la_data_in_mprj\[41\]
*789 la_data_in_mprj\[42\]
*790 la_data_in_mprj\[43\]
*791 la_data_in_mprj\[44\]
*792 la_data_in_mprj\[45\]
*793 la_data_in_mprj\[46\]
*794 la_data_in_mprj\[47\]
*795 la_data_in_mprj\[48\]
*796 la_data_in_mprj\[49\]
*797 la_data_in_mprj\[4\]
*798 la_data_in_mprj\[50\]
*799 la_data_in_mprj\[51\]
*800 la_data_in_mprj\[52\]
*801 la_data_in_mprj\[53\]
*802 la_data_in_mprj\[54\]
*803 la_data_in_mprj\[55\]
*804 la_data_in_mprj\[56\]
*805 la_data_in_mprj\[57\]
*806 la_data_in_mprj\[58\]
*807 la_data_in_mprj\[59\]
*808 la_data_in_mprj\[5\]
*809 la_data_in_mprj\[60\]
*810 la_data_in_mprj\[61\]
*811 la_data_in_mprj\[62\]
*812 la_data_in_mprj\[63\]
*813 la_data_in_mprj\[64\]
*814 la_data_in_mprj\[65\]
*815 la_data_in_mprj\[66\]
*816 la_data_in_mprj\[67\]
*817 la_data_in_mprj\[68\]
*818 la_data_in_mprj\[69\]
*819 la_data_in_mprj\[6\]
*820 la_data_in_mprj\[70\]
*821 la_data_in_mprj\[71\]
*822 la_data_in_mprj\[72\]
*823 la_data_in_mprj\[73\]
*824 la_data_in_mprj\[74\]
*825 la_data_in_mprj\[75\]
*826 la_data_in_mprj\[76\]
*827 la_data_in_mprj\[77\]
*828 la_data_in_mprj\[78\]
*829 la_data_in_mprj\[79\]
*830 la_data_in_mprj\[7\]
*831 la_data_in_mprj\[80\]
*832 la_data_in_mprj\[81\]
*833 la_data_in_mprj\[82\]
*834 la_data_in_mprj\[83\]
*835 la_data_in_mprj\[84\]
*836 la_data_in_mprj\[85\]
*837 la_data_in_mprj\[86\]
*838 la_data_in_mprj\[87\]
*839 la_data_in_mprj\[88\]
*840 la_data_in_mprj\[89\]
*841 la_data_in_mprj\[8\]
*842 la_data_in_mprj\[90\]
*843 la_data_in_mprj\[91\]
*844 la_data_in_mprj\[92\]
*845 la_data_in_mprj\[93\]
*846 la_data_in_mprj\[94\]
*847 la_data_in_mprj\[95\]
*848 la_data_in_mprj\[96\]
*849 la_data_in_mprj\[97\]
*850 la_data_in_mprj\[98\]
*851 la_data_in_mprj\[99\]
*852 la_data_in_mprj\[9\]
*853 la_data_in_user\[0\]
*854 la_data_in_user\[100\]
*855 la_data_in_user\[101\]
*856 la_data_in_user\[102\]
*857 la_data_in_user\[103\]
*858 la_data_in_user\[104\]
*859 la_data_in_user\[105\]
*860 la_data_in_user\[106\]
*861 la_data_in_user\[107\]
*862 la_data_in_user\[108\]
*863 la_data_in_user\[109\]
*864 la_data_in_user\[10\]
*865 la_data_in_user\[110\]
*866 la_data_in_user\[111\]
*867 la_data_in_user\[112\]
*868 la_data_in_user\[113\]
*869 la_data_in_user\[114\]
*870 la_data_in_user\[115\]
*871 la_data_in_user\[116\]
*872 la_data_in_user\[117\]
*873 la_data_in_user\[118\]
*874 la_data_in_user\[119\]
*875 la_data_in_user\[11\]
*876 la_data_in_user\[120\]
*877 la_data_in_user\[121\]
*878 la_data_in_user\[122\]
*879 la_data_in_user\[123\]
*880 la_data_in_user\[124\]
*881 la_data_in_user\[125\]
*882 la_data_in_user\[126\]
*883 la_data_in_user\[127\]
*884 la_data_in_user\[12\]
*885 la_data_in_user\[13\]
*886 la_data_in_user\[14\]
*887 la_data_in_user\[15\]
*888 la_data_in_user\[16\]
*889 la_data_in_user\[17\]
*890 la_data_in_user\[18\]
*891 la_data_in_user\[19\]
*892 la_data_in_user\[1\]
*893 la_data_in_user\[20\]
*894 la_data_in_user\[21\]
*895 la_data_in_user\[22\]
*896 la_data_in_user\[23\]
*897 la_data_in_user\[24\]
*898 la_data_in_user\[25\]
*899 la_data_in_user\[26\]
*900 la_data_in_user\[27\]
*901 la_data_in_user\[28\]
*902 la_data_in_user\[29\]
*903 la_data_in_user\[2\]
*904 la_data_in_user\[30\]
*905 la_data_in_user\[31\]
*906 la_data_in_user\[32\]
*907 la_data_in_user\[33\]
*908 la_data_in_user\[34\]
*909 la_data_in_user\[35\]
*910 la_data_in_user\[36\]
*911 la_data_in_user\[37\]
*912 la_data_in_user\[38\]
*913 la_data_in_user\[39\]
*914 la_data_in_user\[3\]
*915 la_data_in_user\[40\]
*916 la_data_in_user\[41\]
*917 la_data_in_user\[42\]
*918 la_data_in_user\[43\]
*919 la_data_in_user\[44\]
*920 la_data_in_user\[45\]
*921 la_data_in_user\[46\]
*922 la_data_in_user\[47\]
*923 la_data_in_user\[48\]
*924 la_data_in_user\[49\]
*925 la_data_in_user\[4\]
*926 la_data_in_user\[50\]
*927 la_data_in_user\[51\]
*928 la_data_in_user\[52\]
*929 la_data_in_user\[53\]
*930 la_data_in_user\[54\]
*931 la_data_in_user\[55\]
*932 la_data_in_user\[56\]
*933 la_data_in_user\[57\]
*934 la_data_in_user\[58\]
*935 la_data_in_user\[59\]
*936 la_data_in_user\[5\]
*937 la_data_in_user\[60\]
*938 la_data_in_user\[61\]
*939 la_data_in_user\[62\]
*940 la_data_in_user\[63\]
*941 la_data_in_user\[64\]
*942 la_data_in_user\[65\]
*943 la_data_in_user\[66\]
*944 la_data_in_user\[67\]
*945 la_data_in_user\[68\]
*946 la_data_in_user\[69\]
*947 la_data_in_user\[6\]
*948 la_data_in_user\[70\]
*949 la_data_in_user\[71\]
*950 la_data_in_user\[72\]
*951 la_data_in_user\[73\]
*952 la_data_in_user\[74\]
*953 la_data_in_user\[75\]
*954 la_data_in_user\[76\]
*955 la_data_in_user\[77\]
*956 la_data_in_user\[78\]
*957 la_data_in_user\[79\]
*958 la_data_in_user\[7\]
*959 la_data_in_user\[80\]
*960 la_data_in_user\[81\]
*961 la_data_in_user\[82\]
*962 la_data_in_user\[83\]
*963 la_data_in_user\[84\]
*964 la_data_in_user\[85\]
*965 la_data_in_user\[86\]
*966 la_data_in_user\[87\]
*967 la_data_in_user\[88\]
*968 la_data_in_user\[89\]
*969 la_data_in_user\[8\]
*970 la_data_in_user\[90\]
*971 la_data_in_user\[91\]
*972 la_data_in_user\[92\]
*973 la_data_in_user\[93\]
*974 la_data_in_user\[94\]
*975 la_data_in_user\[95\]
*976 la_data_in_user\[96\]
*977 la_data_in_user\[97\]
*978 la_data_in_user\[98\]
*979 la_data_in_user\[99\]
*980 la_data_in_user\[9\]
*981 la_data_out_mprj\[0\]
*982 la_data_out_mprj\[100\]
*983 la_data_out_mprj\[101\]
*984 la_data_out_mprj\[102\]
*985 la_data_out_mprj\[103\]
*986 la_data_out_mprj\[104\]
*987 la_data_out_mprj\[105\]
*988 la_data_out_mprj\[106\]
*989 la_data_out_mprj\[107\]
*990 la_data_out_mprj\[108\]
*991 la_data_out_mprj\[109\]
*992 la_data_out_mprj\[10\]
*993 la_data_out_mprj\[110\]
*994 la_data_out_mprj\[111\]
*995 la_data_out_mprj\[112\]
*996 la_data_out_mprj\[113\]
*997 la_data_out_mprj\[114\]
*998 la_data_out_mprj\[115\]
*999 la_data_out_mprj\[116\]
*1000 la_data_out_mprj\[117\]
*1001 la_data_out_mprj\[118\]
*1002 la_data_out_mprj\[119\]
*1003 la_data_out_mprj\[11\]
*1004 la_data_out_mprj\[120\]
*1005 la_data_out_mprj\[121\]
*1006 la_data_out_mprj\[122\]
*1007 la_data_out_mprj\[123\]
*1008 la_data_out_mprj\[124\]
*1009 la_data_out_mprj\[125\]
*1010 la_data_out_mprj\[126\]
*1011 la_data_out_mprj\[127\]
*1012 la_data_out_mprj\[12\]
*1013 la_data_out_mprj\[13\]
*1014 la_data_out_mprj\[14\]
*1015 la_data_out_mprj\[15\]
*1016 la_data_out_mprj\[16\]
*1017 la_data_out_mprj\[17\]
*1018 la_data_out_mprj\[18\]
*1019 la_data_out_mprj\[19\]
*1020 la_data_out_mprj\[1\]
*1021 la_data_out_mprj\[20\]
*1022 la_data_out_mprj\[21\]
*1023 la_data_out_mprj\[22\]
*1024 la_data_out_mprj\[23\]
*1025 la_data_out_mprj\[24\]
*1026 la_data_out_mprj\[25\]
*1027 la_data_out_mprj\[26\]
*1028 la_data_out_mprj\[27\]
*1029 la_data_out_mprj\[28\]
*1030 la_data_out_mprj\[29\]
*1031 la_data_out_mprj\[2\]
*1032 la_data_out_mprj\[30\]
*1033 la_data_out_mprj\[31\]
*1034 la_data_out_mprj\[32\]
*1035 la_data_out_mprj\[33\]
*1036 la_data_out_mprj\[34\]
*1037 la_data_out_mprj\[35\]
*1038 la_data_out_mprj\[36\]
*1039 la_data_out_mprj\[37\]
*1040 la_data_out_mprj\[38\]
*1041 la_data_out_mprj\[39\]
*1042 la_data_out_mprj\[3\]
*1043 la_data_out_mprj\[40\]
*1044 la_data_out_mprj\[41\]
*1045 la_data_out_mprj\[42\]
*1046 la_data_out_mprj\[43\]
*1047 la_data_out_mprj\[44\]
*1048 la_data_out_mprj\[45\]
*1049 la_data_out_mprj\[46\]
*1050 la_data_out_mprj\[47\]
*1051 la_data_out_mprj\[48\]
*1052 la_data_out_mprj\[49\]
*1053 la_data_out_mprj\[4\]
*1054 la_data_out_mprj\[50\]
*1055 la_data_out_mprj\[51\]
*1056 la_data_out_mprj\[52\]
*1057 la_data_out_mprj\[53\]
*1058 la_data_out_mprj\[54\]
*1059 la_data_out_mprj\[55\]
*1060 la_data_out_mprj\[56\]
*1061 la_data_out_mprj\[57\]
*1062 la_data_out_mprj\[58\]
*1063 la_data_out_mprj\[59\]
*1064 la_data_out_mprj\[5\]
*1065 la_data_out_mprj\[60\]
*1066 la_data_out_mprj\[61\]
*1067 la_data_out_mprj\[62\]
*1068 la_data_out_mprj\[63\]
*1069 la_data_out_mprj\[64\]
*1070 la_data_out_mprj\[65\]
*1071 la_data_out_mprj\[66\]
*1072 la_data_out_mprj\[67\]
*1073 la_data_out_mprj\[68\]
*1074 la_data_out_mprj\[69\]
*1075 la_data_out_mprj\[6\]
*1076 la_data_out_mprj\[70\]
*1077 la_data_out_mprj\[71\]
*1078 la_data_out_mprj\[72\]
*1079 la_data_out_mprj\[73\]
*1080 la_data_out_mprj\[74\]
*1081 la_data_out_mprj\[75\]
*1082 la_data_out_mprj\[76\]
*1083 la_data_out_mprj\[77\]
*1084 la_data_out_mprj\[78\]
*1085 la_data_out_mprj\[79\]
*1086 la_data_out_mprj\[7\]
*1087 la_data_out_mprj\[80\]
*1088 la_data_out_mprj\[81\]
*1089 la_data_out_mprj\[82\]
*1090 la_data_out_mprj\[83\]
*1091 la_data_out_mprj\[84\]
*1092 la_data_out_mprj\[85\]
*1093 la_data_out_mprj\[86\]
*1094 la_data_out_mprj\[87\]
*1095 la_data_out_mprj\[88\]
*1096 la_data_out_mprj\[89\]
*1097 la_data_out_mprj\[8\]
*1098 la_data_out_mprj\[90\]
*1099 la_data_out_mprj\[91\]
*1100 la_data_out_mprj\[92\]
*1101 la_data_out_mprj\[93\]
*1102 la_data_out_mprj\[94\]
*1103 la_data_out_mprj\[95\]
*1104 la_data_out_mprj\[96\]
*1105 la_data_out_mprj\[97\]
*1106 la_data_out_mprj\[98\]
*1107 la_data_out_mprj\[99\]
*1108 la_data_out_mprj\[9\]
*1109 la_data_out_user\[0\]
*1110 la_data_out_user\[100\]
*1111 la_data_out_user\[101\]
*1112 la_data_out_user\[102\]
*1113 la_data_out_user\[103\]
*1114 la_data_out_user\[104\]
*1115 la_data_out_user\[105\]
*1116 la_data_out_user\[106\]
*1117 la_data_out_user\[107\]
*1118 la_data_out_user\[108\]
*1119 la_data_out_user\[109\]
*1120 la_data_out_user\[10\]
*1121 la_data_out_user\[110\]
*1122 la_data_out_user\[111\]
*1123 la_data_out_user\[112\]
*1124 la_data_out_user\[113\]
*1125 la_data_out_user\[114\]
*1126 la_data_out_user\[115\]
*1127 la_data_out_user\[116\]
*1128 la_data_out_user\[117\]
*1129 la_data_out_user\[118\]
*1130 la_data_out_user\[119\]
*1131 la_data_out_user\[11\]
*1132 la_data_out_user\[120\]
*1133 la_data_out_user\[121\]
*1134 la_data_out_user\[122\]
*1135 la_data_out_user\[123\]
*1136 la_data_out_user\[124\]
*1137 la_data_out_user\[125\]
*1138 la_data_out_user\[126\]
*1139 la_data_out_user\[127\]
*1140 la_data_out_user\[12\]
*1141 la_data_out_user\[13\]
*1142 la_data_out_user\[14\]
*1143 la_data_out_user\[15\]
*1144 la_data_out_user\[16\]