*SPEF "ieee 1481-1999"
*DESIGN "caravel"
*DATE "11:11:11 Fri 11 11, 1111"
*VENDOR "OpenRCX"
*PROGRAM "Parallel Extraction"
*VERSION "1.0"
*DESIGN_FLOW "NAME_SCOPE LOCAL" "PIN_CAP NONE"
*DIVIDER /
*DELIMITER :
*BUS_DELIMITER []
*T_UNIT 1 NS
*C_UNIT 1 PF
*R_UNIT 1 OHM
*L_UNIT 1 HENRY

*NAME_MAP
*1 clock
*2 flash_clk
*3 flash_csb
*4 flash_io0
*5 flash_io1
*6 gpio
*7 mprj_io[0]
*8 mprj_io[10]
*9 mprj_io[11]
*10 mprj_io[12]
*11 mprj_io[13]
*12 mprj_io[14]
*13 mprj_io[15]
*14 mprj_io[16]
*15 mprj_io[17]
*16 mprj_io[18]
*17 mprj_io[19]
*18 mprj_io[1]
*19 mprj_io[20]
*20 mprj_io[21]
*21 mprj_io[22]
*22 mprj_io[23]
*23 mprj_io[24]
*24 mprj_io[25]
*25 mprj_io[26]
*26 mprj_io[27]
*27 mprj_io[28]
*28 mprj_io[29]
*29 mprj_io[2]
*30 mprj_io[30]
*31 mprj_io[31]
*32 mprj_io[32]
*33 mprj_io[33]
*34 mprj_io[34]
*35 mprj_io[35]
*36 mprj_io[36]
*37 mprj_io[37]
*38 mprj_io[3]
*39 mprj_io[4]
*40 mprj_io[5]
*41 mprj_io[6]
*42 mprj_io[7]
*43 mprj_io[8]
*44 mprj_io[9]
*45 resetb
*46 vccd
*47 vccd1
*48 vccd2
*49 vdda
*50 vdda1
*51 vdda1_2
*52 vdda2
*53 vddio
*54 vddio_2
*55 vssa
*56 vssa1
*57 vssa1_2
*58 vssa2
*59 vssd
*60 vssd1
*61 vssd2
*62 vssio
*63 vssio_2
*64 caravel_clk
*65 caravel_clk2
*66 caravel_rstn
*67 clk_passthru
*68 clock_core
*69 debug_in
*70 debug_mode
*71 debug_oeb
*72 debug_out
*73 ext_clk_sel
*74 ext_reset
*75 flash_clk_core
*76 flash_clk_frame
*77 flash_clk_oeb
*78 flash_csb_core
*79 flash_csb_frame
*80 flash_csb_oeb
*81 flash_io0_di
*82 flash_io0_di_core
*83 flash_io0_do
*84 flash_io0_do_core
*85 flash_io0_ieb
*86 flash_io0_oeb
*87 flash_io0_oeb_core
*88 flash_io1_di
*89 flash_io1_di_core
*90 flash_io1_do
*91 flash_io1_do_core
*92 flash_io1_ieb
*93 flash_io1_oeb
*94 flash_io1_oeb_core
*95 flash_io2_di_core
*96 flash_io2_do_core
*97 flash_io2_oeb_core
*98 flash_io3_di_core
*99 flash_io3_do_core
*100 flash_io3_oeb_core
*101 gpio_in_core
*102 gpio_inenb_core
*103 gpio_mode0_core
*104 gpio_mode1_core
*105 gpio_out_core
*106 gpio_outenb_core
*107 hk_ack_i
*108 hk_cyc_o
*109 hk_dat_i\[0\]
*110 hk_dat_i\[10\]
*111 hk_dat_i\[11\]
*112 hk_dat_i\[12\]
*113 hk_dat_i\[13\]
*114 hk_dat_i\[14\]
*115 hk_dat_i\[15\]
*116 hk_dat_i\[16\]
*117 hk_dat_i\[17\]
*118 hk_dat_i\[18\]
*119 hk_dat_i\[19\]
*120 hk_dat_i\[1\]
*121 hk_dat_i\[20\]
*122 hk_dat_i\[21\]
*123 hk_dat_i\[22\]
*124 hk_dat_i\[23\]
*125 hk_dat_i\[24\]
*126 hk_dat_i\[25\]
*127 hk_dat_i\[26\]
*128 hk_dat_i\[27\]
*129 hk_dat_i\[28\]
*130 hk_dat_i\[29\]
*131 hk_dat_i\[2\]
*132 hk_dat_i\[30\]
*133 hk_dat_i\[31\]
*134 hk_dat_i\[3\]
*135 hk_dat_i\[4\]
*136 hk_dat_i\[5\]
*137 hk_dat_i\[6\]
*138 hk_dat_i\[7\]
*139 hk_dat_i\[8\]
*140 hk_dat_i\[9\]
*141 hk_stb_o
*142 irq_spi\[0\]
*143 irq_spi\[1\]
*144 irq_spi\[2\]
*145 la_data_in_mprj\[0\]
*146 la_data_in_mprj\[100\]
*147 la_data_in_mprj\[101\]
*148 la_data_in_mprj\[102\]
*149 la_data_in_mprj\[103\]
*150 la_data_in_mprj\[104\]
*151 la_data_in_mprj\[105\]
*152 la_data_in_mprj\[106\]
*153 la_data_in_mprj\[107\]
*154 la_data_in_mprj\[108\]
*155 la_data_in_mprj\[109\]
*156 la_data_in_mprj\[10\]
*157 la_data_in_mprj\[110\]
*158 la_data_in_mprj\[111\]
*159 la_data_in_mprj\[112\]
*160 la_data_in_mprj\[113\]
*161 la_data_in_mprj\[114\]
*162 la_data_in_mprj\[115\]
*163 la_data_in_mprj\[116\]
*164 la_data_in_mprj\[117\]
*165 la_data_in_mprj\[118\]
*166 la_data_in_mprj\[119\]
*167 la_data_in_mprj\[11\]
*168 la_data_in_mprj\[120\]
*169 la_data_in_mprj\[121\]
*170 la_data_in_mprj\[122\]
*171 la_data_in_mprj\[123\]
*172 la_data_in_mprj\[124\]
*173 la_data_in_mprj\[125\]
*174 la_data_in_mprj\[126\]
*175 la_data_in_mprj\[127\]
*176 la_data_in_mprj\[12\]
*177 la_data_in_mprj\[13\]
*178 la_data_in_mprj\[14\]
*179 la_data_in_mprj\[15\]
*180 la_data_in_mprj\[16\]
*181 la_data_in_mprj\[17\]
*182 la_data_in_mprj\[18\]
*183 la_data_in_mprj\[19\]
*184 la_data_in_mprj\[1\]
*185 la_data_in_mprj\[20\]
*186 la_data_in_mprj\[21\]
*187 la_data_in_mprj\[22\]
*188 la_data_in_mprj\[23\]
*189 la_data_in_mprj\[24\]
*190 la_data_in_mprj\[25\]
*191 la_data_in_mprj\[26\]
*192 la_data_in_mprj\[27\]
*193 la_data_in_mprj\[28\]
*194 la_data_in_mprj\[29\]
*195 la_data_in_mprj\[2\]
*196 la_data_in_mprj\[30\]
*197 la_data_in_mprj\[31\]
*198 la_data_in_mprj\[32\]
*199 la_data_in_mprj\[33\]
*200 la_data_in_mprj\[34\]
*201 la_data_in_mprj\[35\]
*202 la_data_in_mprj\[36\]
*203 la_data_in_mprj\[37\]
*204 la_data_in_mprj\[38\]
*205 la_data_in_mprj\[39\]
*206 la_data_in_mprj\[3\]
*207 la_data_in_mprj\[40\]
*208 la_data_in_mprj\[41\]
*209 la_data_in_mprj\[42\]
*210 la_data_in_mprj\[43\]
*211 la_data_in_mprj\[44\]
*212 la_data_in_mprj\[45\]
*213 la_data_in_mprj\[46\]
*214 la_data_in_mprj\[47\]
*215 la_data_in_mprj\[48\]
*216 la_data_in_mprj\[49\]
*217 la_data_in_mprj\[4\]
*218 la_data_in_mprj\[50\]
*219 la_data_in_mprj\[51\]
*220 la_data_in_mprj\[52\]
*221 la_data_in_mprj\[53\]
*222 la_data_in_mprj\[54\]
*223 la_data_in_mprj\[55\]
*224 la_data_in_mprj\[56\]
*225 la_data_in_mprj\[57\]
*226 la_data_in_mprj\[58\]
*227 la_data_in_mprj\[59\]
*228 la_data_in_mprj\[5\]
*229 la_data_in_mprj\[60\]
*230 la_data_in_mprj\[61\]
*231 la_data_in_mprj\[62\]
*232 la_data_in_mprj\[63\]
*233 la_data_in_mprj\[64\]
*234 la_data_in_mprj\[65\]
*235 la_data_in_mprj\[66\]
*236 la_data_in_mprj\[67\]
*237 la_data_in_mprj\[68\]
*238 la_data_in_mprj\[69\]
*239 la_data_in_mprj\[6\]
*240 la_data_in_mprj\[70\]
*241 la_data_in_mprj\[71\]
*242 la_data_in_mprj\[72\]
*243 la_data_in_mprj\[73\]
*244 la_data_in_mprj\[74\]
*245 la_data_in_mprj\[75\]
*246 la_data_in_mprj\[76\]
*247 la_data_in_mprj\[77\]
*248 la_data_in_mprj\[78\]
*249 la_data_in_mprj\[79\]
*250 la_data_in_mprj\[7\]
*251 la_data_in_mprj\[80\]
*252 la_data_in_mprj\[81\]
*253 la_data_in_mprj\[82\]
*254 la_data_in_mprj\[83\]
*255 la_data_in_mprj\[84\]
*256 la_data_in_mprj\[85\]
*257 la_data_in_mprj\[86\]
*258 la_data_in_mprj\[87\]
*259 la_data_in_mprj\[88\]
*260 la_data_in_mprj\[89\]
*261 la_data_in_mprj\[8\]
*262 la_data_in_mprj\[90\]
*263 la_data_in_mprj\[91\]
*264 la_data_in_mprj\[92\]
*265 la_data_in_mprj\[93\]
*266 la_data_in_mprj\[94\]
*267 la_data_in_mprj\[95\]
*268 la_data_in_mprj\[96\]
*269 la_data_in_mprj\[97\]
*270 la_data_in_mprj\[98\]
*271 la_data_in_mprj\[99\]
*272 la_data_in_mprj\[9\]
*273 la_data_in_user\[0\]
*274 la_data_in_user\[100\]
*275 la_data_in_user\[101\]
*276 la_data_in_user\[102\]
*277 la_data_in_user\[103\]
*278 la_data_in_user\[104\]
*279 la_data_in_user\[105\]
*280 la_data_in_user\[106\]
*281 la_data_in_user\[107\]
*282 la_data_in_user\[108\]
*283 la_data_in_user\[109\]
*284 la_data_in_user\[10\]
*285 la_data_in_user\[110\]
*286 la_data_in_user\[111\]
*287 la_data_in_user\[112\]
*288 la_data_in_user\[113\]
*289 la_data_in_user\[114\]
*290 la_data_in_user\[115\]
*291 la_data_in_user\[116\]
*292 la_data_in_user\[117\]
*293 la_data_in_user\[118\]
*294 la_data_in_user\[119\]
*295 la_data_in_user\[11\]
*296 la_data_in_user\[120\]
*297 la_data_in_user\[121\]
*298 la_data_in_user\[122\]
*299 la_data_in_user\[123\]
*300 la_data_in_user\[124\]
*301 la_data_in_user\[125\]
*302 la_data_in_user\[126\]
*303 la_data_in_user\[127\]
*304 la_data_in_user\[12\]
*305 la_data_in_user\[13\]
*306 la_data_in_user\[14\]
*307 la_data_in_user\[15\]
*308 la_data_in_user\[16\]
*309 la_data_in_user\[17\]
*310 la_data_in_user\[18\]
*311 la_data_in_user\[19\]
*312 la_data_in_user\[1\]
*313 la_data_in_user\[20\]
*314 la_data_in_user\[21\]
*315 la_data_in_user\[22\]
*316 la_data_in_user\[23\]
*317 la_data_in_user\[24\]
*318 la_data_in_user\[25\]
*319 la_data_in_user\[26\]
*320 la_data_in_user\[27\]
*321 la_data_in_user\[28\]
*322 la_data_in_user\[29\]
*323 la_data_in_user\[2\]
*324 la_data_in_user\[30\]
*325 la_data_in_user\[31\]
*326 la_data_in_user\[32\]
*327 la_data_in_user\[33\]
*328 la_data_in_user\[34\]
*329 la_data_in_user\[35\]
*330 la_data_in_user\[36\]
*331 la_data_in_user\[37\]
*332 la_data_in_user\[38\]
*333 la_data_in_user\[39\]
*334 la_data_in_user\[3\]
*335 la_data_in_user\[40\]
*336 la_data_in_user\[41\]
*337 la_data_in_user\[42\]
*338 la_data_in_user\[43\]
*339 la_data_in_user\[44\]
*340 la_data_in_user\[45\]
*341 la_data_in_user\[46\]
*342 la_data_in_user\[47\]
*343 la_data_in_user\[48\]
*344 la_data_in_user\[49\]
*345 la_data_in_user\[4\]
*346 la_data_in_user\[50\]
*347 la_data_in_user\[51\]
*348 la_data_in_user\[52\]
*349 la_data_in_user\[53\]
*350 la_data_in_user\[54\]
*351 la_data_in_user\[55\]
*352 la_data_in_user\[56\]
*353 la_data_in_user\[57\]
*354 la_data_in_user\[58\]
*355 la_data_in_user\[59\]
*356 la_data_in_user\[5\]
*357 la_data_in_user\[60\]
*358 la_data_in_user\[61\]
*359 la_data_in_user\[62\]
*360 la_data_in_user\[63\]
*361 la_data_in_user\[64\]
*362 la_data_in_user\[65\]
*363 la_data_in_user\[66\]
*364 la_data_in_user\[67\]
*365 la_data_in_user\[68\]
*366 la_data_in_user\[69\]
*367 la_data_in_user\[6\]
*368 la_data_in_user\[70\]
*369 la_data_in_user\[71\]
*370 la_data_in_user\[72\]
*371 la_data_in_user\[73\]
*372 la_data_in_user\[74\]
*373 la_data_in_user\[75\]
*374 la_data_in_user\[76\]
*375 la_data_in_user\[77\]
*376 la_data_in_user\[78\]
*377 la_data_in_user\[79\]
*378 la_data_in_user\[7\]
*379 la_data_in_user\[80\]
*380 la_data_in_user\[81\]
*381 la_data_in_user\[82\]
*382 la_data_in_user\[83\]
*383 la_data_in_user\[84\]
*384 la_data_in_user\[85\]
*385 la_data_in_user\[86\]
*386 la_data_in_user\[87\]
*387 la_data_in_user\[88\]
*388 la_data_in_user\[89\]
*389 la_data_in_user\[8\]
*390 la_data_in_user\[90\]
*391 la_data_in_user\[91\]
*392 la_data_in_user\[92\]
*393 la_data_in_user\[93\]
*394 la_data_in_user\[94\]
*395 la_data_in_user\[95\]
*396 la_data_in_user\[96\]
*397 la_data_in_user\[97\]
*398 la_data_in_user\[98\]
*399 la_data_in_user\[99\]
*400 la_data_in_user\[9\]
*401 la_data_out_mprj\[0\]
*402 la_data_out_mprj\[100\]
*403 la_data_out_mprj\[101\]
*404 la_data_out_mprj\[102\]
*405 la_data_out_mprj\[103\]
*406 la_data_out_mprj\[104\]
*407 la_data_out_mprj\[105\]
*408 la_data_out_mprj\[106\]
*409 la_data_out_mprj\[107\]
*410 la_data_out_mprj\[108\]
*411 la_data_out_mprj\[109\]
*412 la_data_out_mprj\[10\]
*413 la_data_out_mprj\[110\]
*414 la_data_out_mprj\[111\]
*415 la_data_out_mprj\[112\]
*416 la_data_out_mprj\[113\]
*417 la_data_out_mprj\[114\]
*418 la_data_out_mprj\[115\]
*419 la_data_out_mprj\[116\]
*420 la_data_out_mprj\[117\]
*421 la_data_out_mprj\[118\]
*422 la_data_out_mprj\[119\]
*423 la_data_out_mprj\[11\]
*424 la_data_out_mprj\[120\]
*425 la_data_out_mprj\[121\]
*426 la_data_out_mprj\[122\]
*427 la_data_out_mprj\[123\]
*428 la_data_out_mprj\[124\]
*429 la_data_out_mprj\[125\]
*430 la_data_out_mprj\[126\]
*431 la_data_out_mprj\[127\]
*432 la_data_out_mprj\[12\]
*433 la_data_out_mprj\[13\]
*434 la_data_out_mprj\[14\]
*435 la_data_out_mprj\[15\]
*436 la_data_out_mprj\[16\]
*437 la_data_out_mprj\[17\]
*438 la_data_out_mprj\[18\]
*439 la_data_out_mprj\[19\]
*440 la_data_out_mprj\[1\]
*441 la_data_out_mprj\[20\]
*442 la_data_out_mprj\[21\]
*443 la_data_out_mprj\[22\]
*444 la_data_out_mprj\[23\]
*445 la_data_out_mprj\[24\]
*446 la_data_out_mprj\[25\]
*447 la_data_out_mprj\[26\]
*448 la_data_out_mprj\[27\]
*449 la_data_out_mprj\[28\]
*450 la_data_out_mprj\[29\]
*451 la_data_out_mprj\[2\]
*452 la_data_out_mprj\[30\]
*453 la_data_out_mprj\[31\]
*454 la_data_out_mprj\[32\]
*455 la_data_out_mprj\[33\]
*456 la_data_out_mprj\[34\]
*457 la_data_out_mprj\[35\]
*458 la_data_out_mprj\[36\]
*459 la_data_out_mprj\[37\]
*460 la_data_out_mprj\[38\]
*461 la_data_out_mprj\[39\]
*462 la_data_out_mprj\[3\]
*463 la_data_out_mprj\[40\]
*464 la_data_out_mprj\[41\]
*465 la_data_out_mprj\[42\]
*466 la_data_out_mprj\[43\]
*467 la_data_out_mprj\[44\]
*468 la_data_out_mprj\[45\]
*469 la_data_out_mprj\[46\]
*470 la_data_out_mprj\[47\]
*471 la_data_out_mprj\[48\]
*472 la_data_out_mprj\[49\]
*473 la_data_out_mprj\[4\]
*474 la_data_out_mprj\[50\]
*475 la_data_out_mprj\[51\]
*476 la_data_out_mprj\[52\]
*477 la_data_out_mprj\[53\]
*478 la_data_out_mprj\[54\]
*479 la_data_out_mprj\[55\]
*480 la_data_out_mprj\[56\]
*481 la_data_out_mprj\[57\]
*482 la_data_out_mprj\[58\]
*483 la_data_out_mprj\[59\]
*484 la_data_out_mprj\[5\]
*485 la_data_out_mprj\[60\]
*486 la_data_out_mprj\[61\]
*487 la_data_out_mprj\[62\]
*488 la_data_out_mprj\[63\]
*489 la_data_out_mprj\[64\]
*490 la_data_out_mprj\[65\]
*491 la_data_out_mprj\[66\]
*492 la_data_out_mprj\[67\]
*493 la_data_out_mprj\[68\]
*494 la_data_out_mprj\[69\]
*495 la_data_out_mprj\[6\]
*496 la_data_out_mprj\[70\]
*497 la_data_out_mprj\[71\]
*498 la_data_out_mprj\[72\]
*499 la_data_out_mprj\[73\]
*500 la_data_out_mprj\[74\]
*501 la_data_out_mprj\[75\]
*502 la_data_out_mprj\[76\]
*503 la_data_out_mprj\[77\]
*504 la_data_out_mprj\[78\]
*505 la_data_out_mprj\[79\]
*506 la_data_out_mprj\[7\]
*507 la_data_out_mprj\[80\]
*508 la_data_out_mprj\[81\]
*509 la_data_out_mprj\[82\]
*510 la_data_out_mprj\[83\]
*511 la_data_out_mprj\[84\]
*512 la_data_out_mprj\[85\]
*513 la_data_out_mprj\[86\]
*514 la_data_out_mprj\[87\]
*515 la_data_out_mprj\[88\]
*516 la_data_out_mprj\[89\]
*517 la_data_out_mprj\[8\]
*518 la_data_out_mprj\[90\]
*519 la_data_out_mprj\[91\]
*520 la_data_out_mprj\[92\]
*521 la_data_out_mprj\[93\]
*522 la_data_out_mprj\[94\]
*523 la_data_out_mprj\[95\]
*524 la_data_out_mprj\[96\]
*525 la_data_out_mprj\[97\]
*526 la_data_out_mprj\[98\]
*527 la_data_out_mprj\[99\]
*528 la_data_out_mprj\[9\]
*529 la_data_out_user\[0\]
*530 la_data_out_user\[100\]
*531 la_data_out_user\[101\]
*532 la_data_out_user\[102\]
*533 la_data_out_user\[103\]
*534 la_data_out_user\[104\]
*535 la_data_out_user\[105\]
*536 la_data_out_user\[106\]
*537 la_data_out_user\[107\]
*538 la_data_out_user\[108\]
*539 la_data_out_user\[109\]
*540 la_data_out_user\[10\]
*541 la_data_out_user\[110\]
*542 la_data_out_user\[111\]
*543 la_data_out_user\[112\]
*544 la_data_out_user\[113\]
*545 la_data_out_user\[114\]
*546 la_data_out_user\[115\]
*547 la_data_out_user\[116\]
*548 la_data_out_user\[117\]
*549 la_data_out_user\[118\]
*550 la_data_out_user\[119\]
*551 la_data_out_user\[11\]
*552 la_data_out_user\[120\]
*553 la_data_out_user\[121\]
*554 la_data_out_user\[122\]
*555 la_data_out_user\[123\]
*556 la_data_out_user\[124\]
*557 la_data_out_user\[125\]
*558 la_data_out_user\[126\]
*559 la_data_out_user\[127\]
*560 la_data_out_user\[12\]
*561 la_data_out_user\[13\]
*562 la_data_out_user\[14\]
*563 la_data_out_user\[15\]
*564 la_data_out_user\[16\]
*565 la_data_out_user\[17\]
*566 la_data_out_user\[18\]
*567 la_data_out_user\[19\]
*568 la_data_out_user\[1\]
*569 la_data_out_user\[20\]
*570 la_data_out_user\[21\]
*571 la_data_out_user\[22\]
*572 la_data_out_user\[23\]
*573 la_data_out_user\[24\]
*574 la_data_out_user\[25\]
*575 la_data_out_user\[26\]
*576 la_data_out_user\[27\]
*577 la_data_out_user\[28\]
*578 la_data_out_user\[29\]
*579 la_data_out_user\[2\]
*580 la_data_out_user\[30\]
*581 la_data_out_user\[31\]
*582 la_data_out_user\[32\]
*583 la_data_out_user\[33\]
*584 la_data_out_user\[34\]
*585 la_data_out_user\[35\]
*586 la_data_out_user\[36\]
*587 la_data_out_user\[37\]
*588 la_data_out_user\[38\]
*589 la_data_out_user\[39\]
*590 la_data_out_user\[3\]
*591 la_data_out_user\[40\]
*592 la_data_out_user\[41\]
*593 la_data_out_user\[42\]
*594 la_data_out_user\[43\]
*595 la_data_out_user\[44\]
*596 la_data_out_user\[45\]
*597 la_data_out_user\[46\]
*598 la_data_out_user\[47\]
*599 la_data_out_user\[48\]
*600 la_data_out_user\[49\]
*601 la_data_out_user\[4\]
*602 la_data_out_user\[50\]
*603 la_data_out_user\[51\]
*604 la_data_out_user\[52\]
*605 la_data_out_user\[53\]
*606 la_data_out_user\[54\]
*607 la_data_out_user\[55\]
*608 la_data_out_user\[56\]
*609 la_data_out_user\[57\]
*610 la_data_out_user\[58\]
*611 la_data_out_user\[59\]
*612 la_data_out_user\[5\]
*613 la_data_out_user\[60\]
*614 la_data_out_user\[61\]
*615 la_data_out_user\[62\]
*616 la_data_out_user\[63\]
*617 la_data_out_user\[64\]
*618 la_data_out_user\[65\]
*619 la_data_out_user\[66\]
*620 la_data_out_user\[67\]
*621 la_data_out_user\[68\]
*622 la_data_out_user\[69\]
*623 la_data_out_user\[6\]
*624 la_data_out_user\[70\]
*625 la_data_out_user\[71\]
*626 la_data_out_user\[72\]
*627 la_data_out_user\[73\]
*628 la_data_out_user\[74\]
*629 la_data_out_user\[75\]
*630 la_data_out_user\[76\]
*631 la_data_out_user\[77\]
*632 la_data_out_user\[78\]
*633 la_data_out_user\[79\]
*634 la_data_out_user\[7\]
*635 la_data_out_user\[80\]
*636 la_data_out_user\[81\]
*637 la_data_out_user\[82\]
*638 la_data_out_user\[83\]
*639 la_data_out_user\[84\]
*640 la_data_out_user\[85\]
*641 la_data_out_user\[86\]
*642 la_data_out_user\[87\]
*643 la_data_out_user\[88\]
*644 la_data_out_user\[89\]
*645 la_data_out_user\[8\]
*646 la_data_out_user\[90\]
*647 la_data_out_user\[91\]
*648 la_data_out_user\[92\]
*649 la_data_out_user\[93\]
*650 la_data_out_user\[94\]
*651 la_data_out_user\[95\]
*652 la_data_out_user\[96\]
*653 la_data_out_user\[97\]
*654 la_data_out_user\[98\]
*655 la_data_out_user\[99\]
*656 la_data_out_user\[9\]
*657 la_iena_mprj\[0\]
*658 la_iena_mprj\[100\]
*659 la_iena_mprj\[101\]
*660 la_iena_mprj\[102\]
*661 la_iena_mprj\[103\]
*662 la_iena_mprj\[104\]
*663 la_iena_mprj\[105\]
*664 la_iena_mprj\[106\]
*665 la_iena_mprj\[107\]
*666 la_iena_mprj\[108\]
*667 la_iena_mprj\[109\]
*668 la_iena_mprj\[10\]
*669 la_iena_mprj\[110\]
*670 la_iena_mprj\[111\]
*671 la_iena_mprj\[112\]
*672 la_iena_mprj\[113\]
*673 la_iena_mprj\[114\]
*674 la_iena_mprj\[115\]
*675 la_iena_mprj\[116\]
*676 la_iena_mprj\[117\]
*677 la_iena_mprj\[118\]
*678 la_iena_mprj\[119\]
*679 la_iena_mprj\[11\]
*680 la_iena_mprj\[120\]
*681 la_iena_mprj\[121\]
*682 la_iena_mprj\[122\]
*683 la_iena_mprj\[123\]
*684 la_iena_mprj\[124\]
*685 la_iena_mprj\[125\]
*686 la_iena_mprj\[126\]
*687 la_iena_mprj\[127\]
*688 la_iena_mprj\[12\]
*689 la_iena_mprj\[13\]
*690 la_iena_mprj\[14\]
*691 la_iena_mprj\[15\]
*692 la_iena_mprj\[16\]
*693 la_iena_mprj\[17\]
*694 la_iena_mprj\[18\]
*695 la_iena_mprj\[19\]
*696 la_iena_mprj\[1\]
*697 la_iena_mprj\[20\]
*698 la_iena_mprj\[21\]
*699 la_iena_mprj\[22\]
*700 la_iena_mprj\[23\]
*701 la_iena_mprj\[24\]
*702 la_iena_mprj\[25\]
*703 la_iena_mprj\[26\]
*704 la_iena_mprj\[27\]
*705 la_iena_mprj\[28\]
*706 la_iena_mprj\[29\]
*707 la_iena_mprj\[2\]
*708 la_iena_mprj\[30\]
*709 la_iena_mprj\[31\]
*710 la_iena_mprj\[32\]
*711 la_iena_mprj\[33\]
*712 la_iena_mprj\[34\]
*713 la_iena_mprj\[35\]
*714 la_iena_mprj\[36\]
*715 la_iena_mprj\[37\]
*716 la_iena_mprj\[38\]
*717 la_iena_mprj\[39\]
*718 la_iena_mprj\[3\]
*719 la_iena_mprj\[40\]
*720 la_iena_mprj\[41\]
*721 la_iena_mprj\[42\]
*722 la_iena_mprj\[43\]
*723 la_iena_mprj\[44\]
*724 la_iena_mprj\[45\]
*725 la_iena_mprj\[46\]
*726 la_iena_mprj\[47\]
*727 la_iena_mprj\[48\]
*728 la_iena_mprj\[49\]
*729 la_iena_mprj\[4\]
*730 la_iena_mprj\[50\]
*731 la_iena_mprj\[51\]
*732 la_iena_mprj\[52\]
*733 la_iena_mprj\[53\]
*734 la_iena_mprj\[54\]
*735 la_iena_mprj\[55\]
*736 la_iena_mprj\[56\]
*737 la_iena_mprj\[57\]
*738 la_iena_mprj\[58\]
*739 la_iena_mprj\[59\]
*740 la_iena_mprj\[5\]
*741 la_iena_mprj\[60\]
*742 la_iena_mprj\[61\]
*743 la_iena_mprj\[62\]
*744 la_iena_mprj\[63\]
*745 la_iena_mprj\[64\]
*746 la_iena_mprj\[65\]
*747 la_iena_mprj\[66\]
*748 la_iena_mprj\[67\]
*749 la_iena_mprj\[68\]
*750 la_iena_mprj\[69\]
*751 la_iena_mprj\[6\]
*752 la_iena_mprj\[70\]
*753 la_iena_mprj\[71\]
*754 la_iena_mprj\[72\]
*755 la_iena_mprj\[73\]
*756 la_iena_mprj\[74\]
*757 la_iena_mprj\[75\]
*758 la_iena_mprj\[76\]
*759 la_iena_mprj\[77\]
*760 la_iena_mprj\[78\]
*761 la_iena_mprj\[79\]
*762 la_iena_mprj\[7\]
*763 la_iena_mprj\[80\]
*764 la_iena_mprj\[81\]
*765 la_iena_mprj\[82\]
*766 la_iena_mprj\[83\]
*767 la_iena_mprj\[84\]
*768 la_iena_mprj\[85\]
*769 la_iena_mprj\[86\]
*770 la_iena_mprj\[87\]
*771 la_iena_mprj\[88\]
*772 la_iena_mprj\[89\]
*773 la_iena_mprj\[8\]
*774 la_iena_mprj\[90\]
*775 la_iena_mprj\[91\]
*776 la_iena_mprj\[92\]
*777 la_iena_mprj\[93\]
*778 la_iena_mprj\[94\]
*779 la_iena_mprj\[95\]
*780 la_iena_mprj\[96\]
*781 la_iena_mprj\[97\]
*782 la_iena_mprj\[98\]
*783 la_iena_mprj\[99\]
*784 la_iena_mprj\[9\]
*785 la_oenb_mprj\[0\]
*786 la_oenb_mprj\[100\]
*787 la_oenb_mprj\[101\]
*788 la_oenb_mprj\[102\]
*789 la_oenb_mprj\[103\]
*790 la_oenb_mprj\[104\]
*791 la_oenb_mprj\[105\]
*792 la_oenb_mprj\[106\]
*793 la_oenb_mprj\[107\]
*794 la_oenb_mprj\[108\]
*795 la_oenb_mprj\[109\]
*796 la_oenb_mprj\[10\]
*797 la_oenb_mprj\[110\]
*798 la_oenb_mprj\[111\]
*799 la_oenb_mprj\[112\]
*800 la_oenb_mprj\[113\]
*801 la_oenb_mprj\[114\]
*802 la_oenb_mprj\[115\]
*803 la_oenb_mprj\[116\]
*804 la_oenb_mprj\[117\]
*805 la_oenb_mprj\[118\]
*806 la_oenb_mprj\[119\]
*807 la_oenb_mprj\[11\]
*808 la_oenb_mprj\[120\]
*809 la_oenb_mprj\[121\]
*810 la_oenb_mprj\[122\]
*811 la_oenb_mprj\[123\]
*812 la_oenb_mprj\[124\]
*813 la_oenb_mprj\[125\]
*814 la_oenb_mprj\[126\]
*815 la_oenb_mprj\[127\]
*816 la_oenb_mprj\[12\]
*817 la_oenb_mprj\[13\]
*818 la_oenb_mprj\[14\]
*819 la_oenb_mprj\[15\]
*820 la_oenb_mprj\[16\]
*821 la_oenb_mprj\[17\]
*822 la_oenb_mprj\[18\]
*823 la_oenb_mprj\[19\]
*824 la_oenb_mprj\[1\]
*825 la_oenb_mprj\[20\]
*826 la_oenb_mprj\[21\]
*827 la_oenb_mprj\[22\]
*828 la_oenb_mprj\[23\]
*829 la_oenb_mprj\[24\]
*830 la_oenb_mprj\[25\]
*831 la_oenb_mprj\[26\]
*832 la_oenb_mprj\[27\]
*833 la_oenb_mprj\[28\]
*834 la_oenb_mprj\[29\]
*835 la_oenb_mprj\[2\]
*836 la_oenb_mprj\[30\]
*837 la_oenb_mprj\[31\]
*838 la_oenb_mprj\[32\]
*839 la_oenb_mprj\[33\]
*840 la_oenb_mprj\[34\]
*841 la_oenb_mprj\[35\]
*842 la_oenb_mprj\[36\]
*843 la_oenb_mprj\[37\]
*844 la_oenb_mprj\[38\]
*845 la_oenb_mprj\[39\]
*846 la_oenb_mprj\[3\]
*847 la_oenb_mprj\[40\]
*848 la_oenb_mprj\[41\]
*849 la_oenb_mprj\[42\]
*850 la_oenb_mprj\[43\]
*851 la_oenb_mprj\[44\]
*852 la_oenb_mprj\[45\]
*853 la_oenb_mprj\[46\]
*854 la_oenb_mprj\[47\]
*855 la_oenb_mprj\[48\]
*856 la_oenb_mprj\[49\]
*857 la_oenb_mprj\[4\]
*858 la_oenb_mprj\[50\]
*859 la_oenb_mprj\[51\]
*860 la_oenb_mprj\[52\]
*861 la_oenb_mprj\[53\]
*862 la_oenb_mprj\[54\]
*863 la_oenb_mprj\[55\]
*864 la_oenb_mprj\[56\]
*865 la_oenb_mprj\[57\]
*866 la_oenb_mprj\[58\]
*867 la_oenb_mprj\[59\]
*868 la_oenb_mprj\[5\]
*869 la_oenb_mprj\[60\]
*870 la_oenb_mprj\[61\]
*871 la_oenb_mprj\[62\]
*872 la_oenb_mprj\[63\]
*873 la_oenb_mprj\[64\]
*874 la_oenb_mprj\[65\]
*875 la_oenb_mprj\[66\]
*876 la_oenb_mprj\[67\]
*877 la_oenb_mprj\[68\]
*878 la_oenb_mprj\[69\]
*879 la_oenb_mprj\[6\]
*880 la_oenb_mprj\[70\]
*881 la_oenb_mprj\[71\]
*882 la_oenb_mprj\[72\]
*883 la_oenb_mprj\[73\]
*884 la_oenb_mprj\[74\]
*885 la_oenb_mprj\[75\]
*886 la_oenb_mprj\[76\]
*887 la_oenb_mprj\[77\]
*888 la_oenb_mprj\[78\]
*889 la_oenb_mprj\[79\]
*890 la_oenb_mprj\[7\]
*891 la_oenb_mprj\[80\]
*892 la_oenb_mprj\[81\]
*893 la_oenb_mprj\[82\]
*894 la_oenb_mprj\[83\]
*895 la_oenb_mprj\[84\]
*896 la_oenb_mprj\[85\]
*897 la_oenb_mprj\[86\]
*898 la_oenb_mprj\[87\]
*899 la_oenb_mprj\[88\]
*900 la_oenb_mprj\[89\]
*901 la_oenb_mprj\[8\]
*902 la_oenb_mprj\[90\]
*903 la_oenb_mprj\[91\]
*904 la_oenb_mprj\[92\]
*905 la_oenb_mprj\[93\]
*906 la_oenb_mprj\[94\]
*907 la_oenb_mprj\[95\]
*908 la_oenb_mprj\[96\]
*909 la_oenb_mprj\[97\]
*910 la_oenb_mprj\[98\]
*911 la_oenb_mprj\[99\]
*912 la_oenb_mprj\[9\]
*913 la_oenb_user\[0\]
*914 la_oenb_user\[100\]
*915 la_oenb_user\[101\]
*916 la_oenb_user\[102\]
*917 la_oenb_user\[103\]
*918 la_oenb_user\[104\]
*919 la_oenb_user\[105\]
*920 la_oenb_user\[106\]
*921 la_oenb_user\[107\]
*922 la_oenb_user\[108\]
*923 la_oenb_user\[109\]
*924 la_oenb_user\[10\]
*925 la_oenb_user\[110\]
*926 la_oenb_user\[111\]
*927 la_oenb_user\[112\]
*928 la_oenb_user\[113\]
*929 la_oenb_user\[114\]
*930 la_oenb_user\[115\]
*931 la_oenb_user\[116\]
*932 la_oenb_user\[117\]
*933 la_oenb_user\[118\]
*934 la_oenb_user\[119\]
*935 la_oenb_user\[11\]
*936 la_oenb_user\[120\]
*937 la_oenb_user\[121\]
*938 la_oenb_user\[122\]
*939 la_oenb_user\[123\]
*940 la_oenb_user\[124\]
*941 la_oenb_user\[125\]
*942 la_oenb_user\[126\]
*943 la_oenb_user\[127\]
*944 la_oenb_user\[12\]
*945 la_oenb_user\[13\]
*946 la_oenb_user\[14\]
*947 la_oenb_user\[15\]
*948 la_oenb_user\[16\]
*949 la_oenb_user\[17\]
*950 la_oenb_user\[18\]
*951 la_oenb_user\[19\]
*952 la_oenb_user\[1\]
*953 la_oenb_user\[20\]
*954 la_oenb_user\[21\]
*955 la_oenb_user\[22\]
*956 la_oenb_user\[23\]
*957 la_oenb_user\[24\]
*958 la_oenb_user\[25\]
*959 la_oenb_user\[26\]
*960 la_oenb_user\[27\]
*961 la_oenb_user\[28\]
*962 la_oenb_user\[29\]
*963 la_oenb_user\[2\]
*964 la_oenb_user\[30\]
*965 la_oenb_user\[31\]
*966 la_oenb_user\[32\]
*967 la_oenb_user\[33\]
*968 la_oenb_user\[34\]
*969 la_oenb_user\[35\]
*970 la_oenb_user\[36\]
*971 la_oenb_user\[37\]
*972 la_oenb_user\[38\]
*973 la_oenb_user\[39\]
*974 la_oenb_user\[3\]
*975 la_oenb_user\[40\]
*976 la_oenb_user\[41\]
*977 la_oenb_user\[42\]
*978 la_oenb_user\[43\]
*979 la_oenb_user\[44\]
*980 la_oenb_user\[45\]
*981 la_oenb_user\[46\]
*982 la_oenb_user\[47\]
*983 la_oenb_user\[48\]
*984 la_oenb_user\[49\]
*985 la_oenb_user\[4\]
*986 la_oenb_user\[50\]
*987 la_oenb_user\[51\]
*988 la_oenb_user\[52\]
*989 la_oenb_user\[53\]
*990 la_oenb_user\[54\]
*991 la_oenb_user\[55\]
*992 la_oenb_user\[56\]
*993 la_oenb_user\[57\]
*994 la_oenb_user\[58\]
*995 la_oenb_user\[59\]
*996 la_oenb_user\[5\]
*997 la_oenb_user\[60\]
*998 la_oenb_user\[61\]
*999 la_oenb_user\[62\]
*1000 la_oenb_user\[63\]
*1001 la_oenb_user\[64\]
*1002 la_oenb_user\[65\]
*1003 la_oenb_user\[66\]
*1004 la_oenb_user\[67\]
*1005 la_oenb_user\[68\]
*1006 la_oenb_user\[69\]
*1007 la_oenb_user\[6\]
*1008 la_oenb_user\[70\]
*1009 la_oenb_user\[71\]
*1010 la_oenb_user\[72\]
*1011 la_oenb_user\[73\]
*1012 la_oenb_user\[74\]
*1013 la_oenb_user\[75\]
*1014 la_oenb_user\[76\]
*1015 la_oenb_user\[77\]
*1016 la_oenb_user\[78\]
*1017 la_oenb_user\[79\]
*1018 la_oenb_user\[7\]
*1019 la_oenb_user\[80\]
*1020 la_oenb_user\[81\]
*1021 la_oenb_user\[82\]
*1022 la_oenb_user\[83\]
*1023 la_oenb_user\[84\]
*1024 la_oenb_user\[85\]
*1025 la_oenb_user\[86\]
*1026 la_oenb_user\[87\]
*1027 la_oenb_user\[88\]
*1028 la_oenb_user\[89\]
*1029 la_oenb_user\[8\]
*1030 la_oenb_user\[90\]
*1031 la_oenb_user\[91\]
*1032 la_oenb_user\[92\]
*1033 la_oenb_user\[93\]
*1034 la_oenb_user\[94\]
*1035 la_oenb_user\[95\]
*1036 la_oenb_user\[96\]
*1037 la_oenb_user\[97\]
*1038 la_oenb_user\[98\]
*1039 la_oenb_user\[99\]
*1040 la_oenb_user\[9\]
*1041 mask_rev\[0\]
*1042 mask_rev\[10\]
*1043 mask_rev\[11\]
*1044 mask_rev\[12\]
*1045 mask_rev\[13\]
*1046 mask_rev\[14\]
*1047 mask_rev\[15\]
*1048 mask_rev\[16\]
*1049 mask_rev\[17\]
*1050 mask_rev\[18\]
*1051 mask_rev\[19\]
*1052 mask_rev\[1\]
*1053 mask_rev\[20\]
*1054 mask_rev\[21\]
*1055 mask_rev\[22\]
*1056 mask_rev\[23\]
*1057 mask_rev\[24\]
*1058 mask_rev\[25\]
*1059 mask_rev\[26\]
*1060 mask_rev\[27\]
*1061 mask_rev\[28\]
*1062 mask_rev\[29\]
*1063 mask_rev\[2\]
*1064 mask_rev\[30\]
*1065 mask_rev\[31\]
*1066 mask_rev\[3\]
*1067 mask_rev\[4\]
*1068 mask_rev\[5\]
*1069 mask_rev\[6\]
*1070 mask_rev\[7\]
*1071 mask_rev\[8\]
*1072 mask_rev\[9\]
*1073 mprj2_vcc_pwrgood
*1074 mprj2_vdd_pwrgood
*1075 mprj_ack_i_core
*1076 mprj_ack_i_user
*1077 mprj_adr_o_core\[0\]
*1078 mprj_adr_o_core\[10\]
*1079 mprj_adr_o_core\[11\]
*1080 mprj_adr_o_core\[12\]
*1081 mprj_adr_o_core\[13\]
*1082 mprj_adr_o_core\[14\]
*1083 mprj_adr_o_core\[15\]
*1084 mprj_adr_o_core\[16\]
*1085 mprj_adr_o_core\[17\]
*1086 mprj_adr_o_core\[18\]
*1087 mprj_adr_o_core\[19\]
*1088 mprj_adr_o_core\[1\]
*1089 mprj_adr_o_core\[20\]
*1090 mprj_adr_o_core\[21\]
*1091 mprj_adr_o_core\[22\]
*1092 mprj_adr_o_core\[23\]
*1093 mprj_adr_o_core\[24\]
*1094 mprj_adr_o_core\[25\]
*1095 mprj_adr_o_core\[26\]
*1096 mprj_adr_o_core\[27\]
*1097 mprj_adr_o_core\[28\]
*1098 mprj_adr_o_core\[29\]
*1099 mprj_adr_o_core\[2\]
*1100 mprj_adr_o_core\[30\]
*1101 mprj_adr_o_core\[31\]
*1102 mprj_adr_o_core\[3\]
*1103 mprj_adr_o_core\[4\]
*1104 mprj_adr_o_core\[5\]
*1105 mprj_adr_o_core\[6\]
*1106 mprj_adr_o_core\[7\]
*1107 mprj_adr_o_core\[8\]
*1108 mprj_adr_o_core\[9\]
*1109 mprj_adr_o_user\[0\]
*1110 mprj_adr_o_user\[10\]
*1111 mprj_adr_o_user\[11\]
*1112 mprj_adr_o_user\[12\]
*1113 mprj_adr_o_user\[13\]
*1114 mprj_adr_o_user\[14\]
*1115 mprj_adr_o_user\[15\]
*1116 mprj_adr_o_user\[16\]
*1117 mprj_adr_o_user\[17\]
*1118 mprj_adr_o_user\[18\]
*1119 mprj_adr_o_user\[19\]
*1120 mprj_adr_o_user\[1\]
*1121 mprj_adr_o_user\[20\]
*1122 mprj_adr_o_user\[21\]
*1123 mprj_adr_o_user\[22\]
*1124 mprj_adr_o_user\[23\]
*1125 mprj_adr_o_user\[24\]
*1126 mprj_adr_o_user\[25\]
*1127 mprj_adr_o_user\[26\]
*1128 mprj_adr_o_user\[27\]
*1129 mprj_adr_o_user\[28\]
*1130 mprj_adr_o_user\[29\]
*1131 mprj_adr_o_user\[2\]
*1132 mprj_adr_o_user\[30\]
*1133 mprj_adr_o_user\[31\]
*1134 mprj_adr_o_user\[3\]
*1135 mprj_adr_o_user\[4\]
*1136 mprj_adr_o_user\[5\]
*1137 mprj_adr_o_user\[6\]
*1138 mprj_adr_o_user\[7\]
*1139 mprj_adr_o_user\[8\]
*1140 mprj_adr_o_user\[9\]
*1141 mprj_clock
*1142 mprj_clock2
*1143 mprj_cyc_o_core
*1144 mprj_cyc_o_user
*1145 mprj_dat_i_core\[0\]
*1146 mprj_dat_i_core\[10\]
*1147 mprj_dat_i_core\[11\]
*1148 mprj_dat_i_core\[12\]
*1149 mprj_dat_i_core\[13\]
*1150 mprj_dat_i_core\[14\]
*1151 mprj_dat_i_core\[15\]
*1152 mprj_dat_i_core\[16\]
*1153 mprj_dat_i_core\[17\]
*1154 mprj_dat_i_core\[18\]
*1155 mprj_dat_i_core\[19\]
*1156 mprj_dat_i_core\[1\]
*1157 mprj_dat_i_core\[20\]
*1158 mprj_dat_i_core\[21\]
*1159 mprj_dat_i_core\[22\]
*1160 mprj_dat_i_core\[23\]
*1161 mprj_dat_i_core\[24\]
*1162 mprj_dat_i_core\[25\]
*1163 mprj_dat_i_core\[26\]
*1164 mprj_dat_i_core\[27\]
*1165 mprj_dat_i_core\[28\]
*1166 mprj_dat_i_core\[29\]
*1167 mprj_dat_i_core\[2\]
*1168 mprj_dat_i_core\[30\]
*1169 mprj_dat_i_core\[31\]
*1170 mprj_dat_i_core\[3\]
*1171 mprj_dat_i_core\[4\]
*1172 mprj_dat_i_core\[5\]
*1173 mprj_dat_i_core\[6\]
*1174 mprj_dat_i_core\[7\]
*1175 mprj_dat_i_core\[8\]
*1176 mprj_dat_i_core\[9\]
*1177 mprj_dat_i_user\[0\]
*1178 mprj_dat_i_user\[10\]
*1179 mprj_dat_i_user\[11\]
*1180 mprj_dat_i_user\[12\]
*1181 mprj_dat_i_user\[13\]
*1182 mprj_dat_i_user\[14\]
*1183 mprj_dat_i_user\[15\]
*1184 mprj_dat_i_user\[16\]
*1185 mprj_dat_i_user\[17\]
*1186 mprj_dat_i_user\[18\]
*1187 mprj_dat_i_user\[19\]
*1188 mprj_dat_i_user\[1\]