*SPEF "ieee 1481-1999"
*DESIGN "digital_locked_loop"
*DATE "11:11:11 Fri 11 11, 1111"
*VENDOR "OpenRCX"
*PROGRAM "Parallel Extraction"
*VERSION "1.0"
*DESIGN_FLOW "NAME_SCOPE LOCAL" "PIN_CAP NONE"
*DIVIDER /
*DELIMITER :
*BUS_DELIMITER []
*T_UNIT 1 NS
*C_UNIT 1 PF
*R_UNIT 1 OHM
*L_UNIT 1 HENRY

*NAME_MAP
*3 clockp[0]
*4 clockp[1]
*5 dco
*6 div[0]
*7 div[1]
*8 div[2]
*9 div[3]
*10 div[4]
*11 enable
*12 ext_trim[0]
*13 ext_trim[10]
*14 ext_trim[11]
*15 ext_trim[12]
*16 ext_trim[13]
*17 ext_trim[14]
*18 ext_trim[15]
*19 ext_trim[16]
*20 ext_trim[17]
*21 ext_trim[18]
*22 ext_trim[19]
*23 ext_trim[1]
*24 ext_trim[20]
*25 ext_trim[21]
*26 ext_trim[22]
*27 ext_trim[23]
*28 ext_trim[24]
*29 ext_trim[25]
*30 ext_trim[2]
*31 ext_trim[3]
*32 ext_trim[4]
*33 ext_trim[5]
*34 ext_trim[6]
*35 ext_trim[7]
*36 ext_trim[8]
*37 ext_trim[9]
*38 osc
*39 resetb
*40 creset
*41 dll_control_count0[0]
*42 dll_control_count0[1]
*43 dll_control_count0[2]
*44 dll_control_count0[3]
*45 dll_control_count0[4]
*46 dll_control_count1[0]
*47 dll_control_count1[1]
*48 dll_control_count1[2]
*49 dll_control_count1[3]
*50 dll_control_count1[4]
*51 dll_control_oscbuf[0]
*52 dll_control_oscbuf[1]
*53 dll_control_oscbuf[2]
*54 dll_control_prep[0]
*55 dll_control_prep[1]
*56 dll_control_prep[2]
*57 dll_control_tint[0]
*58 dll_control_tint[1]
*59 dll_control_tint[2]
*60 dll_control_tint[3]
*61 dll_control_tint[4]
*62 dll_control_tval[0]
*63 dll_control_tval[1]
*64 ireset
*65 itrim[0]
*66 itrim[10]
*67 itrim[11]
*68 itrim[12]
*69 itrim[13]
*70 itrim[14]
*71 itrim[15]
*72 itrim[16]
*73 itrim[17]
*74 itrim[18]
*75 itrim[1]
*76 itrim[20]
*77 itrim[21]
*78 itrim[22]
*79 itrim[23]
*80 itrim[24]
*81 itrim[25]
*82 itrim[2]
*83 itrim[3]
*84 itrim[4]
*85 itrim[5]
*86 itrim[6]
*87 itrim[7]
*88 itrim[8]
*89 itrim[9]
*90 n100
*91 n101
*92 n102
*93 n103
*94 n104
*95 n105
*96 n106
*97 n107
*98 n108
*99 n109
*100 n110
*101 n111
*102 n112
*103 n113
*104 n114
*105 n115
*106 n116
*107 n117
*108 n118
*109 n119
*110 n120
*111 n121
*112 n122
*113 n123
*114 n124
*115 n125
*116 n126
*117 n127
*118 n128
*119 n129
*120 n130
*121 n131
*122 n132
*123 n133
*124 n134
*125 n135
*126 n136
*127 n137
*128 n138
*129 n139
*130 n140
*131 n141
*132 n142
*133 n143
*134 n144
*135 n145
*136 n146
*137 n147
*138 n148
*139 n149
*140 n150
*141 n151
*142 n152
*143 n153
*144 n154
*145 n155
*146 n156
*147 n157
*148 n158
*149 n159
*150 n160
*151 n161
*152 n162
*153 n163
*154 n164
*155 n165
*156 n166
*157 n167
*158 n168
*159 n169
*160 n170
*161 n171
*162 n172
*163 n173
*164 n174
*165 n175
*166 n176
*167 n177
*168 n178
*169 n179
*170 n180
*171 n181
*172 n182
*173 n183
*174 n184
*175 n185
*176 n186
*177 n187
*178 n188
*179 n189
*180 n190
*181 n191
*182 n192
*183 n193
*184 n194
*185 n195
*186 n196
*187 n197
*188 n198
*189 n199
*190 n200
*191 n201
*192 n202
*193 n203
*194 n204
*195 n205
*196 n206
*197 n207
*198 n208
*199 n209
*200 n210
*201 n211
*202 n212
*203 n213
*204 n214
*205 n215
*206 n216
*207 n217
*208 n218
*209 n219
*210 n220
*211 n221
*212 n222
*213 n223
*214 n224
*215 n225
*216 n226
*217 n227
*218 n228
*219 n229
*220 n230
*221 n231
*222 n232
*223 n233
*224 n234
*225 n235
*226 n236
*227 n237
*228 n238
*229 n239
*230 n240
*231 n241
*232 n242
*233 n243
*234 n244
*235 n245
*236 n246
*237 n247
*238 n248
*239 n249
*240 n250
*241 n251
*242 n252
*243 n253
*244 n254
*245 n255
*246 n256
*247 n257
*248 n258
*249 n259
*250 n260
*251 n261
*252 n262
*253 n263
*254 n264
*255 n265
*256 n266
*257 n267
*258 n268
*259 n269
*260 n270
*261 n271
*262 n272
*263 n273
*264 n274
*265 n275
*266 n276
*267 n277
*268 n278
*269 n279
*270 n280
*271 n281
*272 n282
*273 n283
*274 n284
*275 n285
*276 n286
*277 n287
*278 n288
*279 n289
*280 n290
*281 n291
*282 n292
*283 n54
*284 n55
*285 n56
*286 n57
*287 n58
*288 n59
*289 n60
*290 n61
*291 n62
*292 n63
*293 n65
*294 n66
*295 n67
*296 n68
*297 n69
*298 n70
*299 n71
*300 n72
*301 n73
*302 n74
*303 n76
*304 n77
*305 n78
*306 n79
*307 n80
*308 n81
*309 n82
*310 n83
*311 n84
*312 n85
*313 n86
*314 n87
*315 n88
*316 n89
*317 n90
*318 n91
*319 n92
*320 n93
*321 n94
*322 n95
*323 n96
*324 n97
*325 n98
*326 n99
*327 net1
*328 net2
*329 ringosc_c[0]
*330 ringosc_c[1]
*331 ringosc_d[0]
*332 ringosc_d[10]
*333 ringosc_d[11]
*334 ringosc_d[12]
*335 ringosc_d[1]
*336 ringosc_d[2]
*337 ringosc_d[3]
*338 ringosc_d[4]
*339 ringosc_d[5]
*340 ringosc_d[6]
*341 ringosc_d[7]
*342 ringosc_d[8]
*343 ringosc_d[9]
*344 ringosc_dstage_0__id_d0
*345 ringosc_dstage_0__id_d1
*346 ringosc_dstage_0__id_d2
*347 ringosc_dstage_0__id_ts
*348 ringosc_dstage_10__id_d0
*349 ringosc_dstage_10__id_d1
*350 ringosc_dstage_10__id_d2
*351 ringosc_dstage_10__id_ts
*352 ringosc_dstage_11__id_d0
*353 ringosc_dstage_11__id_d1
*354 ringosc_dstage_11__id_d2
*355 ringosc_dstage_11__id_ts
*356 ringosc_dstage_1__id_d0
*357 ringosc_dstage_1__id_d1
*358 ringosc_dstage_1__id_d2
*359 ringosc_dstage_1__id_ts
*360 ringosc_dstage_2__id_d0
*361 ringosc_dstage_2__id_d1
*362 ringosc_dstage_2__id_d2
*363 ringosc_dstage_2__id_ts
*364 ringosc_dstage_3__id_d0
*365 ringosc_dstage_3__id_d1
*366 ringosc_dstage_3__id_d2
*367 ringosc_dstage_3__id_ts
*368 ringosc_dstage_4__id_d0
*369 ringosc_dstage_4__id_d1
*370 ringosc_dstage_4__id_d2
*371 ringosc_dstage_4__id_ts
*372 ringosc_dstage_5__id_d0
*373 ringosc_dstage_5__id_d1
*374 ringosc_dstage_5__id_d2
*375 ringosc_dstage_5__id_ts
*376 ringosc_dstage_6__id_d0
*377 ringosc_dstage_6__id_d1
*378 ringosc_dstage_6__id_d2
*379 ringosc_dstage_6__id_ts
*380 ringosc_dstage_7__id_d0
*381 ringosc_dstage_7__id_d1
*382 ringosc_dstage_7__id_d2
*383 ringosc_dstage_7__id_ts
*384 ringosc_dstage_8__id_d0
*385 ringosc_dstage_8__id_d1
*386 ringosc_dstage_8__id_d2
*387 ringosc_dstage_8__id_ts
*388 ringosc_dstage_9__id_d0
*389 ringosc_dstage_9__id_d1
*390 ringosc_dstage_9__id_d2
*391 ringosc_dstage_9__id_ts
*392 ringosc_iss_ctrl0
*393 ringosc_iss_d0
*394 ringosc_iss_d1
*395 ringosc_iss_d2
*396 ringosc_iss_one
*397 ANTENNA_U118_A1
*398 ANTENNA_U119_B
*399 ANTENNA_U127_A
*400 ANTENNA_U128_A
*401 ANTENNA_U128_B
*402 ANTENNA_U129_A
*403 ANTENNA_U132_A
*404 ANTENNA_U156_A
*405 ANTENNA_U158_A1_N
*406 ANTENNA_U158_A2_N
*407 ANTENNA_U162_A
*408 ANTENNA_U163_S
*409 ANTENNA_U165_A1_N
*410 ANTENNA_U165_A2_N
*411 ANTENNA_U167_A
*412 ANTENNA_U170_A
*413 ANTENNA_U174_A
*414 ANTENNA_U215_A
*415 ANTENNA_U216_A
*416 ANTENNA_U217_A
*417 ANTENNA_U219_A
*418 ANTENNA_U225_A
*419 ANTENNA_U319_B
*420 ANTENNA_U321_B
*421 ANTENNA_U322_A
*422 ANTENNA_U326_B
*423 ANTENNA_U330_B
*424 ANTENNA_U334_A
*425 ANTENNA_U334_B
*426 ANTENNA_U336_A
*427 ANTENNA_U336_B
*428 ANTENNA_U338_A
*429 ANTENNA_U338_B
*430 ANTENNA_U339_A
*431 ANTENNA_U339_B
*432 ANTENNA_U340_B
*433 ANTENNA_U343_A2
*434 ANTENNA_U346_A1
*435 ANTENNA_U346_S
*436 ANTENNA_U347_A1
*437 ANTENNA_U347_S
*438 ANTENNA_U348_A1
*439 ANTENNA_U348_S
*440 ANTENNA_U355_A1
*441 ANTENNA_U356_A
*442 ANTENNA_U356_B
*443 ANTENNA_dll_control_count0_reg_0__RESET_B
*444 ANTENNA_dll_control_count0_reg_1__RESET_B
*445 ANTENNA_dll_control_count0_reg_2__RESET_B
*446 ANTENNA_dll_control_count0_reg_3__RESET_B
*447 ANTENNA_dll_control_count0_reg_4__RESET_B
*448 ANTENNA_dll_control_count1_reg_0__RESET_B
*449 ANTENNA_dll_control_count1_reg_1__RESET_B
*450 ANTENNA_dll_control_count1_reg_2__RESET_B
*451 ANTENNA_dll_control_count1_reg_3__RESET_B
*452 ANTENNA_dll_control_count1_reg_4__RESET_B
*453 ANTENNA_dll_control_oscbuf_reg_0__D
*454 ANTENNA_dll_control_oscbuf_reg_2__RESET_B
*455 ANTENNA_dll_control_prep_reg_1__RESET_B
*456 ANTENNA_dll_control_prep_reg_2__RESET_B
*457 ANTENNA_dll_control_tval_reg_0__RESET_B
*458 ANTENNA_dll_control_tval_reg_1__RESET_B
*459 ANTENNA_dll_control_tval_reg_2__RESET_B
*460 FILLER_0_0_10
*461 FILLER_0_0_110
*462 FILLER_0_0_113
*463 FILLER_0_0_116
*464 FILLER_0_0_123
*465 FILLER_0_0_131
*466 FILLER_0_0_139
*467 FILLER_0_0_141
*468 FILLER_0_0_15
*469 FILLER_0_0_164
*470 FILLER_0_0_169
*471 FILLER_0_0_177
*472 FILLER_0_0_185
*473 FILLER_0_0_189
*474 FILLER_0_0_19
*475 FILLER_0_0_25
*476 FILLER_0_0_29
*477 FILLER_0_0_3
*478 FILLER_0_0_37
*479 FILLER_0_0_41
*480 FILLER_0_0_48
*481 FILLER_0_0_55
*482 FILLER_0_0_57
*483 FILLER_0_0_80
*484 FILLER_0_0_85
*485 FILLER_0_0_88
*486 FILLER_0_10_103
*487 FILLER_0_10_108
*488 FILLER_0_10_119
*489 FILLER_0_10_12
*490 FILLER_0_10_128
*491 FILLER_0_10_134
*492 FILLER_0_10_141
*493 FILLER_0_10_147
*494 FILLER_0_10_153
*495 FILLER_0_10_158
*496 FILLER_0_10_166
*497 FILLER_0_10_173
*498 FILLER_0_10_188
*499 FILLER_0_10_20
*500 FILLER_0_10_29
*501 FILLER_0_10_3
*502 FILLER_0_10_34
*503 FILLER_0_10_39
*504 FILLER_0_10_44
*505 FILLER_0_10_48
*506 FILLER_0_10_52
*507 FILLER_0_10_57
*508 FILLER_0_10_7
*509 FILLER_0_10_80
*510 FILLER_0_10_85
*511 FILLER_0_10_88
*512 FILLER_0_10_95
*513 FILLER_0_11_101
*514 FILLER_0_11_106
*515 FILLER_0_11_113
*516 FILLER_0_11_117
*517 FILLER_0_11_121
*518 FILLER_0_11_128
*519 FILLER_0_11_154
*520 FILLER_0_11_159
*521 FILLER_0_11_164
*522 FILLER_0_11_169
*523 FILLER_0_11_17
*524 FILLER_0_11_173
*525 FILLER_0_11_180
*526 FILLER_0_11_187
*527 FILLER_0_11_3
*528 FILLER_0_11_39
*529 FILLER_0_11_43
*530 FILLER_0_11_47
*531 FILLER_0_11_51
*532 FILLER_0_11_55
*533 FILLER_0_11_57
*534 FILLER_0_11_62
*535 FILLER_0_11_69
*536 FILLER_0_11_89
*537 FILLER_0_11_97
*538 FILLER_0_12_101
*539 FILLER_0_12_106
*540 FILLER_0_12_11
*541 FILLER_0_12_117
*542 FILLER_0_12_124
*543 FILLER_0_12_129
*544 FILLER_0_12_136
*545 FILLER_0_12_141
*546 FILLER_0_12_15
*547 FILLER_0_12_165
*548 FILLER_0_12_170
*549 FILLER_0_12_174
*550 FILLER_0_12_183
*551 FILLER_0_12_188
*552 FILLER_0_12_19
*553 FILLER_0_12_23
*554 FILLER_0_12_27
*555 FILLER_0_12_29
*556 FILLER_0_12_3
*557 FILLER_0_12_36
*558 FILLER_0_12_55
*559 FILLER_0_12_62
*560 FILLER_0_12_7
*561 FILLER_0_12_73
*562 FILLER_0_12_80
*563 FILLER_0_12_85
*564 FILLER_0_12_89
*565 FILLER_0_12_93
*566 FILLER_0_12_97
*567 FILLER_0_13_10
*568 FILLER_0_13_101
*569 FILLER_0_13_110
*570 FILLER_0_13_113
*571 FILLER_0_13_116
*572 FILLER_0_13_122
*573 FILLER_0_13_126
*574 FILLER_0_13_132
*575 FILLER_0_13_139
*576 FILLER_0_13_149
*577 FILLER_0_13_154
*578 FILLER_0_13_158
*579 FILLER_0_13_164
*580 FILLER_0_13_169
*581 FILLER_0_13_183
*582 FILLER_0_13_188
*583 FILLER_0_13_19
*584 FILLER_0_13_24
*585 FILLER_0_13_3
*586 FILLER_0_13_34
*587 FILLER_0_13_40
*588 FILLER_0_13_48
*589 FILLER_0_13_53
*590 FILLER_0_13_57
*591 FILLER_0_13_65
*592 FILLER_0_13_71
*593 FILLER_0_13_76
*594 FILLER_0_13_87
*595 FILLER_0_14_101
*596 FILLER_0_14_105
*597 FILLER_0_14_112
*598 FILLER_0_14_116
*599 FILLER_0_14_124
*600 FILLER_0_14_129
*601 FILLER_0_14_138
*602 FILLER_0_14_141
*603 FILLER_0_14_145
*604 FILLER_0_14_150
*605 FILLER_0_14_154
*606 FILLER_0_14_158
*607 FILLER_0_14_163
*608 FILLER_0_14_184
*609 FILLER_0_14_189
*610 FILLER_0_14_25
*611 FILLER_0_14_29
*612 FILLER_0_14_3
*613 FILLER_0_14_41
*614 FILLER_0_14_62
*615 FILLER_0_14_67
*616 FILLER_0_14_76
*617 FILLER_0_14_83
*618 FILLER_0_14_85
*619 FILLER_0_14_95
*620 FILLER_0_15_110
*621 FILLER_0_15_113
*622 FILLER_0_15_116
*623 FILLER_0_15_127
*624 FILLER_0_15_13
*625 FILLER_0_15_136
*626 FILLER_0_15_149
*627 FILLER_0_15_154
*628 FILLER_0_15_159
*629 FILLER_0_15_165
*630 FILLER_0_15_169
*631 FILLER_0_15_177
*632 FILLER_0_15_18
*633 FILLER_0_15_186
*634 FILLER_0_15_26
*635 FILLER_0_15_3
*636 FILLER_0_15_36
*637 FILLER_0_15_41
*638 FILLER_0_15_46
*639 FILLER_0_15_50
*640 FILLER_0_15_55
*641 FILLER_0_15_57
*642 FILLER_0_15_69
*643 FILLER_0_15_78
*644 FILLER_0_15_89
*645 FILLER_0_15_93
*646 FILLER_0_15_98
*647 FILLER_0_16_101
*648 FILLER_0_16_108
*649 FILLER_0_16_113
*650 FILLER_0_16_120
*651 FILLER_0_16_126
*652 FILLER_0_16_130
*653 FILLER_0_16_134
*654 FILLER_0_16_139
*655 FILLER_0_16_141
*656 FILLER_0_16_146
*657 FILLER_0_16_152
*658 FILLER_0_16_163
*659 FILLER_0_16_176
*660 FILLER_0_16_180
*661 FILLER_0_16_185
*662 FILLER_0_16_189
*663 FILLER_0_16_27
*664 FILLER_0_16_29
*665 FILLER_0_16_3
*666 FILLER_0_16_41
*667 FILLER_0_16_45
*668 FILLER_0_16_50
*669 FILLER_0_16_54
*670 FILLER_0_16_62
*671 FILLER_0_16_66
*672 FILLER_0_16_7
*673 FILLER_0_16_71
*674 FILLER_0_16_78
*675 FILLER_0_16_83
*676 FILLER_0_16_85
*677 FILLER_0_16_91
*678 FILLER_0_16_97
*679 FILLER_0_17_107
*680 FILLER_0_17_111
*681 FILLER_0_17_113
*682 FILLER_0_17_122
*683 FILLER_0_17_133
*684 FILLER_0_17_138
*685 FILLER_0_17_14
*686 FILLER_0_17_142
*687 FILLER_0_17_148
*688 FILLER_0_17_152
*689 FILLER_0_17_158
*690 FILLER_0_17_163
*691 FILLER_0_17_167
*692 FILLER_0_17_169
*693 FILLER_0_17_188
*694 FILLER_0_17_25
*695 FILLER_0_17_29
*696 FILLER_0_17_3
*697 FILLER_0_17_36
*698 FILLER_0_17_42
*699 FILLER_0_17_55
*700 FILLER_0_17_57
*701 FILLER_0_17_65
*702 FILLER_0_17_69
*703 FILLER_0_17_7
*704 FILLER_0_17_74
*705 FILLER_0_17_78
*706 FILLER_0_17_86
*707 FILLER_0_17_91
*708 FILLER_0_17_99
*709 FILLER_0_18_106
*710 FILLER_0_18_110
*711 FILLER_0_18_120
*712 FILLER_0_18_125
*713 FILLER_0_18_129
*714 FILLER_0_18_139
*715 FILLER_0_18_141
*716 FILLER_0_18_150
*717 FILLER_0_18_159
*718 FILLER_0_18_165
*719 FILLER_0_18_174
*720 FILLER_0_18_183
*721 FILLER_0_18_189
*722 FILLER_0_18_20
*723 FILLER_0_18_27
*724 FILLER_0_18_29
*725 FILLER_0_18_3
*726 FILLER_0_18_33
*727 FILLER_0_18_53
*728 FILLER_0_18_57
*729 FILLER_0_18_62
*730 FILLER_0_18_69
*731 FILLER_0_18_76
*732 FILLER_0_18_83
*733 FILLER_0_18_85
*734 FILLER_0_18_9
*735 FILLER_0_18_92
*736 FILLER_0_18_99
*737 FILLER_0_19_101
*738 FILLER_0_19_106
*739 FILLER_0_19_111
*740 FILLER_0_19_113
*741 FILLER_0_19_12
*742 FILLER_0_19_123
*743 FILLER_0_19_127
*744 FILLER_0_19_132
*745 FILLER_0_19_138
*746 FILLER_0_19_143
*747 FILLER_0_19_148
*748 FILLER_0_19_161
*749 FILLER_0_19_166
*750 FILLER_0_19_169
*751 FILLER_0_19_189
*752 FILLER_0_19_3
*753 FILLER_0_19_32
*754 FILLER_0_19_37
*755 FILLER_0_19_41
*756 FILLER_0_19_49
*757 FILLER_0_19_55
*758 FILLER_0_19_57
*759 FILLER_0_19_62
*760 FILLER_0_19_66
*761 FILLER_0_19_71
*762 FILLER_0_19_80
*763 FILLER_0_19_87
*764 FILLER_0_19_92
*765 FILLER_0_1_100
*766 FILLER_0_1_109
*767 FILLER_0_1_113
*768 FILLER_0_1_135
*769 FILLER_0_1_157
*770 FILLER_0_1_161
*771 FILLER_0_1_167
*772 FILLER_0_1_169
*773 FILLER_0_1_183
*774 FILLER_0_1_189
*775 FILLER_0_1_26
*776 FILLER_0_1_3
*777 FILLER_0_1_31
*778 FILLER_0_1_55
*779 FILLER_0_1_57
*780 FILLER_0_1_65
*781 FILLER_0_1_90
*782 FILLER_0_1_94
*783 FILLER_0_20_103
*784 FILLER_0_20_108
*785 FILLER_0_20_117
*786 FILLER_0_20_127
*787 FILLER_0_20_13
*788 FILLER_0_20_138
*789 FILLER_0_20_141
*790 FILLER_0_20_145
*791 FILLER_0_20_154
*792 FILLER_0_20_158
*793 FILLER_0_20_16
*794 FILLER_0_20_177
*795 FILLER_0_20_186
*796 FILLER_0_20_21
*797 FILLER_0_20_27
*798 FILLER_0_20_29
*799 FILLER_0_20_3
*800 FILLER_0_20_34
*801 FILLER_0_20_45
*802 FILLER_0_20_59
*803 FILLER_0_20_68
*804 FILLER_0_20_82
*805 FILLER_0_20_85
*806 FILLER_0_20_9
*807 FILLER_0_20_90
*808 FILLER_0_21_11
*809 FILLER_0_21_111
*810 FILLER_0_21_113
*811 FILLER_0_21_116
*812 FILLER_0_21_129
*813 FILLER_0_21_141
*814 FILLER_0_21_156
*815 FILLER_0_21_16
*816 FILLER_0_21_165
*817 FILLER_0_21_169
*818 FILLER_0_21_181
*819 FILLER_0_21_187
*820 FILLER_0_21_29
*821 FILLER_0_21_3
*822 FILLER_0_21_35
*823 FILLER_0_21_55
*824 FILLER_0_21_57
*825 FILLER_0_21_61
*826 FILLER_0_21_66
*827 FILLER_0_21_7
*828 FILLER_0_21_86
*829 FILLER_0_21_91
*830 FILLER_0_22_10
*831 FILLER_0_22_102
*832 FILLER_0_22_106
*833 FILLER_0_22_111
*834 FILLER_0_22_113
*835 FILLER_0_22_121
*836 FILLER_0_22_128
*837 FILLER_0_22_133
*838 FILLER_0_22_138
*839 FILLER_0_22_14
*840 FILLER_0_22_141
*841 FILLER_0_22_147
*842 FILLER_0_22_153
*843 FILLER_0_22_158
*844 FILLER_0_22_163
*845 FILLER_0_22_167
*846 FILLER_0_22_169
*847 FILLER_0_22_17
*848 FILLER_0_22_172
*849 FILLER_0_22_181
*850 FILLER_0_22_186
*851 FILLER_0_22_21
*852 FILLER_0_22_26
*853 FILLER_0_22_29
*854 FILLER_0_22_3
*855 FILLER_0_22_37
*856 FILLER_0_22_41
*857 FILLER_0_22_49
*858 FILLER_0_22_54
*859 FILLER_0_22_57
*860 FILLER_0_22_6
*861 FILLER_0_22_61
*862 FILLER_0_22_67
*863 FILLER_0_22_72
*864 FILLER_0_22_81
*865 FILLER_0_22_85
*866 FILLER_0_22_92
*867 FILLER_0_2_106
*868 FILLER_0_2_113
*869 FILLER_0_2_117
*870 FILLER_0_2_12
*871 FILLER_0_2_139
*872 FILLER_0_2_141
*873 FILLER_0_2_162
*874 FILLER_0_2_170
*875 FILLER_0_2_178
*876 FILLER_0_2_186
*877 FILLER_0_2_21
*878 FILLER_0_2_27
*879 FILLER_0_2_29
*880 FILLER_0_2_3
*881 FILLER_0_2_39
*882 FILLER_0_2_63
*883 FILLER_0_2_67
*884 FILLER_0_2_71
*885 FILLER_0_2_80
*886 FILLER_0_2_85
*887 FILLER_0_2_89
*888 FILLER_0_2_94
*889 FILLER_0_2_99
*890 FILLER_0_3_107
*891 FILLER_0_3_111
*892 FILLER_0_3_113
*893 FILLER_0_3_116
*894 FILLER_0_3_121
*895 FILLER_0_3_148
*896 FILLER_0_3_15
*897 FILLER_0_3_157
*898 FILLER_0_3_162
*899 FILLER_0_3_169
*900 FILLER_0_3_177
*901 FILLER_0_3_185
*902 FILLER_0_3_189
*903 FILLER_0_3_26
*904 FILLER_0_3_3
*905 FILLER_0_3_33
*906 FILLER_0_3_39
*907 FILLER_0_3_44
*908 FILLER_0_3_49
*909 FILLER_0_3_55
*910 FILLER_0_3_57
*911 FILLER_0_3_61
*912 FILLER_0_3_65
*913 FILLER_0_3_69
*914 FILLER_0_3_7
*915 FILLER_0_3_81
*916 FILLER_0_3_85
*917 FILLER_0_3_91
*918 FILLER_0_3_95
*919 FILLER_0_3_99
*920 FILLER_0_4_10
*921 FILLER_0_4_113
*922 FILLER_0_4_118
*923 FILLER_0_4_126
*924 FILLER_0_4_132
*925 FILLER_0_4_139
*926 FILLER_0_4_14
*927 FILLER_0_4_141
*928 FILLER_0_4_147
*929 FILLER_0_4_162
*930 FILLER_0_4_169
*931 FILLER_0_4_174
*932 FILLER_0_4_182
*933 FILLER_0_4_20
*934 FILLER_0_4_26
*935 FILLER_0_4_29
*936 FILLER_0_4_3
*937 FILLER_0_4_36
*938 FILLER_0_4_44
*939 FILLER_0_4_53
*940 FILLER_0_4_82
*941 FILLER_0_4_85
*942 FILLER_0_4_91
*943 FILLER_0_5_106
*944 FILLER_0_5_111
*945 FILLER_0_5_113
*946 FILLER_0_5_124
*947 FILLER_0_5_131
*948 FILLER_0_5_136
*949 FILLER_0_5_140
*950 FILLER_0_5_144
*951 FILLER_0_5_149
*952 FILLER_0_5_155
*953 FILLER_0_5_160
*954 FILLER_0_5_169
*955 FILLER_0_5_173
*956 FILLER_0_5_181
*957 FILLER_0_5_189
*958 FILLER_0_5_24
*959 FILLER_0_5_3
*960 FILLER_0_5_43
*961 FILLER_0_5_49
*962 FILLER_0_5_55
*963 FILLER_0_5_57
*964 FILLER_0_5_63
*965 FILLER_0_5_74
*966 FILLER_0_5_86
*967 FILLER_0_5_90
*968 FILLER_0_5_98
*969 FILLER_0_6_107
*970 FILLER_0_6_112
*971 FILLER_0_6_121
*972 FILLER_0_6_129
*973 FILLER_0_6_136
*974 FILLER_0_6_141
*975 FILLER_0_6_147
*976 FILLER_0_6_15
*977 FILLER_0_6_152
*978 FILLER_0_6_156
*979 FILLER_0_6_160
*980 FILLER_0_6_168
*981 FILLER_0_6_172
*982 FILLER_0_6_180
*983 FILLER_0_6_185
*984 FILLER_0_6_189
*985 FILLER_0_6_19
*986 FILLER_0_6_26
*987 FILLER_0_6_29
*988 FILLER_0_6_3
*989 FILLER_0_6_37
*990 FILLER_0_6_45
*991 FILLER_0_6_52
*992 FILLER_0_6_57
*993 FILLER_0_6_61
*994 FILLER_0_6_69
*995 FILLER_0_6_7
*996 FILLER_0_6_73
*997 FILLER_0_6_77
*998 FILLER_0_6_82
*999 FILLER_0_6_85
*1000 FILLER_0_7_10
*1001 FILLER_0_7_101
*1002 FILLER_0_7_105
*1003 FILLER_0_7_110
*1004 FILLER_0_7_113
*1005 FILLER_0_7_118
*1006 FILLER_0_7_122
*1007 FILLER_0_7_126
*1008 FILLER_0_7_132
*1009 FILLER_0_7_14
*1010 FILLER_0_7_156
*1011 FILLER_0_7_166
*1012 FILLER_0_7_169
*1013 FILLER_0_7_173
*1014 FILLER_0_7_18
*1015 FILLER_0_7_180
*1016 FILLER_0_7_188
*1017 FILLER_0_7_22
*1018 FILLER_0_7_3
*1019 FILLER_0_7_30
*1020 FILLER_0_7_34
*1021 FILLER_0_7_38
*1022 FILLER_0_7_42
*1023 FILLER_0_7_49
*1024 FILLER_0_7_55
*1025 FILLER_0_7_57
*1026 FILLER_0_7_66
*1027 FILLER_0_7_89
*1028 FILLER_0_7_95
*1029 FILLER_0_8_102
*1030 FILLER_0_8_110
*1031 FILLER_0_8_118
*1032 FILLER_0_8_124
*1033 FILLER_0_8_128
*1034 FILLER_0_8_133
*1035 FILLER_0_8_139
*1036 FILLER_0_8_141
*1037 FILLER_0_8_149
*1038 FILLER_0_8_153
*1039 FILLER_0_8_157
*1040 FILLER_0_8_164
*1041 FILLER_0_8_171
*1042 FILLER_0_8_179
*1043 FILLER_0_8_187
*1044 FILLER_0_8_27
*1045 FILLER_0_8_29
*1046 FILLER_0_8_3
*1047 FILLER_0_8_35
*1048 FILLER_0_8_46
*1049 FILLER_0_8_54
*1050 FILLER_0_8_61
*1051 FILLER_0_8_66
*1052 FILLER_0_8_74
*1053 FILLER_0_8_79
*1054 FILLER_0_8_83
*1055 FILLER_0_8_85
*1056 FILLER_0_8_89
*1057 FILLER_0_8_9
*1058 FILLER_0_8_96
*1059 FILLER_0_9_102
*1060 FILLER_0_9_111
*1061 FILLER_0_9_113
*1062 FILLER_0_9_137
*1063 FILLER_0_9_145
*1064 FILLER_0_9_150
*1065 FILLER_0_9_157
*1066 FILLER_0_9_166
*1067 FILLER_0_9_169
*1068 FILLER_0_9_181
*1069 FILLER_0_9_186
*1070 FILLER_0_9_24
*1071 FILLER_0_9_28
*1072 FILLER_0_9_3
*1073 FILLER_0_9_46
*1074 FILLER_0_9_55
*1075 FILLER_0_9_57
*1076 FILLER_0_9_61
*1077 FILLER_0_9_65
*1078 FILLER_0_9_70
*1079 FILLER_0_9_84
*1080 FILLER_0_9_91
*1081 FILLER_0_9_95
*1082 PHY_0
*1083 PHY_1
*1084 PHY_10
*1085 PHY_11
*1086 PHY_12
*1087 PHY_13
*1088 PHY_14
*1089 PHY_15
*1090 PHY_16
*1091 PHY_17
*1092 PHY_18
*1093 PHY_19
*1094 PHY_2
*1095 PHY_20
*1096 PHY_21
*1097 PHY_22
*1098 PHY_23
*1099 PHY_24
*1100 PHY_25
*1101 PHY_26
*1102 PHY_27
*1103 PHY_28
*1104 PHY_29
*1105 PHY_3
*1106 PHY_30
*1107 PHY_31
*1108 PHY_32
*1109 PHY_33
*1110 PHY_34
*1111 PHY_35
*1112 PHY_36
*1113 PHY_37
*1114 PHY_38
*1115 PHY_39
*1116 PHY_4
*1117 PHY_40
*1118 PHY_41
*1119 PHY_42
*1120 PHY_43
*1121 PHY_44
*1122 PHY_45
*1123 PHY_5
*1124 PHY_6
*1125 PHY_7
*1126 PHY_8
*1127 PHY_9
*1128 TAP_100
*1129 TAP_101
*1130 TAP_102
*1131 TAP_103
*1132 TAP_104
*1133 TAP_105
*1134 TAP_106
*1135 TAP_107
*1136 TAP_108
*1137 TAP_109
*1138 TAP_110
*1139 TAP_111
*1140 TAP_112
*1141 TAP_113
*1142 TAP_114
*1143 TAP_115
*1144 TAP_116
*1145 TAP_117
*1146 TAP_118
*1147 TAP_119
*1148 TAP_120
*1149 TAP_46
*1150 TAP_47
*1151 TAP_48
*1152 TAP_49
*1153 TAP_50
*1154 TAP_51
*1155 TAP_52
*1156 TAP_53
*1157 TAP_54
*1158 TAP_55
*1159 TAP_56
*1160 TAP_57
*1161 TAP_58
*1162 TAP_59
*1163 TAP_60
*1164 TAP_61
*1165 TAP_62
*1166 TAP_63
*1167 TAP_64
*1168 TAP_65
*1169 TAP_66
*1170 TAP_67
*1171 TAP_68
*1172 TAP_69
*1173 TAP_70
*1174 TAP_71
*1175 TAP_72
*1176 TAP_73
*1177 TAP_74
*1178 TAP_75
*1179 TAP_76
*1180 TAP_77
*1181 TAP_78
*1182 TAP_79
*1183 TAP_80
*1184 TAP_81
*1185 TAP_82
*1186 TAP_83
*1187 TAP_84
*1188 TAP_85
*1189 TAP_86
*1190 TAP_87
*1191 TAP_88
*1192 TAP_89
*1193 TAP_90
*1194 TAP_91
*1195 TAP_92
*1196 TAP_93
*1197 TAP_94
*1198 TAP_95
*1199 TAP_96
*1200 TAP_97
*1201 TAP_98
*1202 TAP_99
*1203 U104
*1204 U105
*1205 U106
*1206 U107
*1207 U108
*1208 U109
*1209 U110
*1210 U111
*1211 U112
*1212 U113
*1213 U114
*1214 U115
*1215 U116
*1216 U117
*1217 U118
*1218 U119
*1219 U120
*1220 U121
*1221 U122
*1222 U123
*1223 U124
*1224 U125
*1225 U126
*1226 U127
*1227 U128
*1228 U129
*1229 U130
*1230 U131
*1231 U132
*1232 U133
*1233 U134
*1234 U135
*1235 U136
*1236 U137
*1237 U138
*1238 U139
*1239 U140
*1240 U141
*1241 U142
*1242 U143
*1243 U144
*1244 U145
*1245 U146
*1246 U147
*1247 U148
*1248 U149
*1249 U150
*1250 U151
*1251 U152
*1252 U153
*1253 U154
*1254 U155
*1255 U156
*1256 U157
*1257 U158
*1258 U159
*1259 U160
*1260 U161
*1261 U162
*1262 U163
*1263 U164
*1264 U165
*1265 U166
*1266 U167
*1267 U168
*1268 U169
*1269 U170
*1270 U171
*1271 U172
*1272 U173
*1273 U174
*1274 U175
*1275 U176
*1276 U177
*1277 U178
*1278 U179
*1279 U180
*1280 U181
*1281 U182
*1282 U183
*1283 U184
*1284 U185
*1285 U186
*1286 U187
*1287 U188
*1288 U189
*1289 U190
*1290 U191
*1291 U192
*1292 U193
*1293 U194
*1294 U195
*1295 U196
*1296 U197
*1297 U198
*1298 U199
*1299 U200
*1300 U201
*1301 U202
*1302 U203
*1303 U204
*1304 U205
*1305 U206
*1306 U207
*1307 U208
*1308 U209
*1309 U210
*1310 U211
*1311 U212
*1312 U213
*1313 U214
*1314 U215
*1315 U216
*1316 U217
*1317 U218
*1318 U219
*1319 U220
*1320 U221
*1321 U222
*1322 U223
*1323 U224
*1324 U225
*1325 U226
*1326 U227
*1327 U228
*1328 U229
*1329 U230
*1330 U231
*1331 U232
*1332 U233
*1333 U234
*1334 U235
*1335 U236
*1336 U237
*1337 U238
*1338 U239
*1339 U240
*1340 U241
*1341 U242
*1342 U243
*1343 U244
*1344 U245
*1345 U246
*1346 U247
*1347 U248
*1348 U249
*1349 U250
*1350 U251
*1351 U252
*1352 U253
*1353 U254
*1354 U255
*1355 U256
*1356 U257
*1357 U258
*1358 U259
*1359 U260
*1360 U261
*1361 U262
*1362 U263
*1363 U264
*1364 U265
*1365 U266
*1366 U267
*1367 U268
*1368 U269
*1369 U270
*1370 U271
*1371 U272
*1372 U273
*1373 U274
*1374 U275
*1375 U276
*1376 U277
*1377 U278
*1378 U279
*1379 U280
*1380 U281
*1381 U282
*1382 U283
*1383 U284
*1384 U285
*1385 U286
*1386 U287
*1387 U288
*1388 U289
*1389 U290
*1390 U291
*1391 U292
*1392 U293
*1393 U294
*1394 U295
*1395 U296
*1396 U297
*1397 U298
*1398 U299
*1399 U300
*1400 U301
*1401 U302
*1402 U303
*1403 U304
*1404 U305
*1405 U306
*1406 U307
*1407 U308
*1408 U309
*1409 U310
*1410 U311
*1411 U312
*1412 U313
*1413 U314
*1414 U315
*1415 U316
*1416 U317
*1417 U318
*1418 U319
*1419 U320
*1420 U321
*1421 U322
*1422 U323
*1423 U324
*1424 U325
*1425 U326
*1426 U327
*1427 U328
*1428 U329
*1429 U330
*1430 U331
*1431 U332
*1432 U333
*1433 U334
*1434 U335
*1435 U336
*1436 U337
*1437 U338
*1438 U339
*1439 U340
*1440 U341
*1441 U342
*1442 U343
*1443 U344
*1444 U345
*1445 U346
*1446 U347
*1447 U348
*1448 U349
*1449 U350
*1450 U351
*1451 U352
*1452 U353
*1453 U354
*1454 U355
*1455 U356
*1456 U357
*1457 U358
*1458 U359
*1459 U360
*1460 U361
*1461 U362
*1462 U363
*1463 dll_control_count0_reg_0_
*1464 dll_control_count0_reg_1_
*1465 dll_control_count0_reg_2_
*1466 dll_control_count0_reg_3_
*1467 dll_control_count0_reg_4_
*1468 dll_control_count1_reg_0_
*1469 dll_control_count1_reg_1_
*1470 dll_control_count1_reg_2_
*1471 dll_control_count1_reg_3_
*1472 dll_control_count1_reg_4_
*1473 dll_control_oscbuf_reg_0_
*1474 dll_control_oscbuf_reg_1_
*1475 dll_control_oscbuf_reg_2_
*1476 dll_control_prep_reg_0_
*1477 dll_control_prep_reg_1_
*1478 dll_control_prep_reg_2_
*1479 dll_control_tval_reg_0_
*1480 dll_control_tval_reg_1_
*1481 dll_control_tval_reg_2_
*1482 dll_control_tval_reg_3_
*1483 dll_control_tval_reg_4_
*1484 dll_control_tval_reg_5_
*1485 dll_control_tval_reg_6_
*1486 fanout1
*1487 fanout2
*1488 ringosc_dstage_0__id_delaybuf0
*1489 ringosc_dstage_0__id_delaybuf1
*1490 ringosc_dstage_0__id_delayen0
*1491 ringosc_dstage_0__id_delayen1
*1492 ringosc_dstage_0__id_delayenb0
*1493 ringosc_dstage_0__id_delayenb1
*1494 ringosc_dstage_0__id_delayint0
*1495 ringosc_dstage_10__id_delaybuf0
*1496 ringosc_dstage_10__id_delaybuf1
*1497 ringosc_dstage_10__id_delayen0
*1498 ringosc_dstage_10__id_delayen1
*1499 ringosc_dstage_10__id_delayenb0
*1500 ringosc_dstage_10__id_delayenb1
*1501 ringosc_dstage_10__id_delayint0
*1502 ringosc_dstage_11__id_delaybuf0
*1503 ringosc_dstage_11__id_delaybuf1
*1504 ringosc_dstage_11__id_delayen0
*1505 ringosc_dstage_11__id_delayen1
*1506 ringosc_dstage_11__id_delayenb0
*1507 ringosc_dstage_11__id_delayenb1
*1508 ringosc_dstage_11__id_delayint0
*1509 ringosc_dstage_1__id_delaybuf0
*1510 ringosc_dstage_1__id_delaybuf1
*1511 ringosc_dstage_1__id_delayen0
*1512 ringosc_dstage_1__id_delayen1
*1513 ringosc_dstage_1__id_delayenb0
*1514 ringosc_dstage_1__id_delayenb1
*1515 ringosc_dstage_1__id_delayint0
*1516 ringosc_dstage_2__id_delaybuf0
*1517 ringosc_dstage_2__id_delaybuf1
*1518 ringosc_dstage_2__id_delayen0
*1519 ringosc_dstage_2__id_delayen1
*1520 ringosc_dstage_2__id_delayenb0
*1521 ringosc_dstage_2__id_delayenb1
*1522 ringosc_dstage_2__id_delayint0
*1523 ringosc_dstage_3__id_delaybuf0
*1524 ringosc_dstage_3__id_delaybuf1
*1525 ringosc_dstage_3__id_delayen0
*1526 ringosc_dstage_3__id_delayen1
*1527 ringosc_dstage_3__id_delayenb0
*1528 ringosc_dstage_3__id_delayenb1
*1529 ringosc_dstage_3__id_delayint0
*1530 ringosc_dstage_4__id_delaybuf0
*1531 ringosc_dstage_4__id_delaybuf1
*1532 ringosc_dstage_4__id_delayen0
*1533 ringosc_dstage_4__id_delayen1
*1534 ringosc_dstage_4__id_delayenb0
*1535 ringosc_dstage_4__id_delayenb1
*1536 ringosc_dstage_4__id_delayint0
*1537 ringosc_dstage_5__id_delaybuf0
*1538 ringosc_dstage_5__id_delaybuf1
*1539 ringosc_dstage_5__id_delayen0
*1540 ringosc_dstage_5__id_delayen1
*1541 ringosc_dstage_5__id_delayenb0
*1542 ringosc_dstage_5__id_delayenb1
*1543 ringosc_dstage_5__id_delayint0
*1544 ringosc_dstage_6__id_delaybuf0
*1545 ringosc_dstage_6__id_delaybuf1
*1546 ringosc_dstage_6__id_delayen0
*1547 ringosc_dstage_6__id_delayen1
*1548 ringosc_dstage_6__id_delayenb0
*1549 ringosc_dstage_6__id_delayenb1
*1550 ringosc_dstage_6__id_delayint0
*1551 ringosc_dstage_7__id_delaybuf0
*1552 ringosc_dstage_7__id_delaybuf1
*1553 ringosc_dstage_7__id_delayen0
*1554 ringosc_dstage_7__id_delayen1
*1555 ringosc_dstage_7__id_delayenb0
*1556 ringosc_dstage_7__id_delayenb1
*1557 ringosc_dstage_7__id_delayint0
*1558 ringosc_dstage_8__id_delaybuf0
*1559 ringosc_dstage_8__id_delaybuf1
*1560 ringosc_dstage_8__id_delayen0
*1561 ringosc_dstage_8__id_delayen1
*1562 ringosc_dstage_8__id_delayenb0
*1563 ringosc_dstage_8__id_delayenb1
*1564 ringosc_dstage_8__id_delayint0
*1565 ringosc_dstage_9__id_delaybuf0
*1566 ringosc_dstage_9__id_delaybuf1
*1567 ringosc_dstage_9__id_delayen0
*1568 ringosc_dstage_9__id_delayen1
*1569 ringosc_dstage_9__id_delayenb0
*1570 ringosc_dstage_9__id_delayenb1
*1571 ringosc_dstage_9__id_delayint0
*1572 ringosc_ibufp00
*1573 ringosc_ibufp01
*1574 ringosc_ibufp10
*1575 ringosc_ibufp11
*1576 ringosc_iss_const1
*1577 ringosc_iss_ctrlen0
*1578 ringosc_iss_delaybuf0
*1579 ringosc_iss_delayen0
*1580 ringosc_iss_delayen1
*1581 ringosc_iss_delayenb0
*1582 ringosc_iss_delayenb1
*1583 ringosc_iss_delayint0
*1584 ringosc_iss_reseten0

*PORTS
clockp[0] O
clockp[1] O
dco I
div[0] I
div[1] I
div[2] I
div[3] I
div[4] I
enable I
ext_trim[0] I
ext_trim[10] I
ext_trim[11] I
ext_trim[12] I
ext_trim[13] I
ext_trim[14] I
ext_trim[15] I
ext_trim[16] I
ext_trim[17] I
ext_trim[18] I
ext_trim[19] I
ext_trim[1] I
ext_trim[20] I
ext_trim[21] I
ext_trim[22] I
ext_trim[23] I
ext_trim[24] I
ext_trim[25] I
ext_trim[2] I
ext_trim[3] I
ext_trim[4] I
ext_trim[5] I
ext_trim[6] I
ext_trim[7] I
ext_trim[8] I
ext_trim[9] I
osc I
resetb I

*D_NET *3 0.0375415
*CONN
*P clockp[0] O
*I *1472:CLK I *D sky130_fd_sc_hd__dfrtp_1
*I *1471:CLK I *D sky130_fd_sc_hd__dfrtp_1
*I *1470:CLK I *D sky130_fd_sc_hd__dfrtp_1
*I *1476:CLK I *D sky130_fd_sc_hd__dfrtp_1
*I *1464:CLK I *D sky130_fd_sc_hd__dfrtp_2
*I *1463:CLK I *D sky130_fd_sc_hd__dfrtp_4
*I *1466:CLK I *D sky130_fd_sc_hd__dfrtp_2
*I *1485:CLK I *D sky130_fd_sc_hd__dfrtp_4
*I *1484:CLK I *D sky130_fd_sc_hd__dfrtp_4
*I *1482:CLK I *D sky130_fd_sc_hd__dfrtp_4
*I *1483:CLK I *D sky130_fd_sc_hd__dfrtp_4
*I *1474:CLK I *D sky130_fd_sc_hd__dfrtp_1
*I *1478:CLK I *D sky130_fd_sc_hd__dfrtp_1
*I *1477:CLK I *D sky130_fd_sc_hd__dfrtp_1
*I *1473:CLK I *D sky130_fd_sc_hd__dfrtp_1
*I *1475:CLK I *D sky130_fd_sc_hd__dfrtp_1